
---------- Begin Simulation Statistics ----------
simSeconds                                   0.000000                       # Number of seconds simulated (Second)
simTicks                                        50000                       # Number of ticks simulated (Tick)
finalTick                                       50000                       # Number of ticks from beginning of simulation (restored from checkpoints and never reset) (Tick)
simFreq                                  1000000000000                       # The number of ticks per simulated second ((Tick/Second))
hostSeconds                                      0.01                       # Real time elapsed on the host (Second)
hostTickRate                                  6612860                       # The number of ticks simulated per host second (ticks/s) ((Tick/Second))
hostMemory                                  537044948                       # Number of bytes of host memory used (Byte)
system.clk_domain.clock                          1111                       # Clock period in ticks (Tick)
system.comm_monitor_dma_devices0.readBurstLengthHist::samples            1                       # Histogram of burst lengths of transmitted packets (Byte)
system.comm_monitor_dma_devices0.readBurstLengthHist::mean           64                       # Histogram of burst lengths of transmitted packets (Byte)
system.comm_monitor_dma_devices0.readBurstLengthHist::gmean    64.000000                       # Histogram of burst lengths of transmitted packets (Byte)
system.comm_monitor_dma_devices0.readBurstLengthHist::stdev          nan                       # Histogram of burst lengths of transmitted packets (Byte)
system.comm_monitor_dma_devices0.readBurstLengthHist::0-3            0      0.00%      0.00% # Histogram of burst lengths of transmitted packets (Byte)
system.comm_monitor_dma_devices0.readBurstLengthHist::4-7            0      0.00%      0.00% # Histogram of burst lengths of transmitted packets (Byte)
system.comm_monitor_dma_devices0.readBurstLengthHist::8-11            0      0.00%      0.00% # Histogram of burst lengths of transmitted packets (Byte)
system.comm_monitor_dma_devices0.readBurstLengthHist::12-15            0      0.00%      0.00% # Histogram of burst lengths of transmitted packets (Byte)
system.comm_monitor_dma_devices0.readBurstLengthHist::16-19            0      0.00%      0.00% # Histogram of burst lengths of transmitted packets (Byte)
system.comm_monitor_dma_devices0.readBurstLengthHist::20-23            0      0.00%      0.00% # Histogram of burst lengths of transmitted packets (Byte)
system.comm_monitor_dma_devices0.readBurstLengthHist::24-27            0      0.00%      0.00% # Histogram of burst lengths of transmitted packets (Byte)
system.comm_monitor_dma_devices0.readBurstLengthHist::28-31            0      0.00%      0.00% # Histogram of burst lengths of transmitted packets (Byte)
system.comm_monitor_dma_devices0.readBurstLengthHist::32-35            0      0.00%      0.00% # Histogram of burst lengths of transmitted packets (Byte)
system.comm_monitor_dma_devices0.readBurstLengthHist::36-39            0      0.00%      0.00% # Histogram of burst lengths of transmitted packets (Byte)
system.comm_monitor_dma_devices0.readBurstLengthHist::40-43            0      0.00%      0.00% # Histogram of burst lengths of transmitted packets (Byte)
system.comm_monitor_dma_devices0.readBurstLengthHist::44-47            0      0.00%      0.00% # Histogram of burst lengths of transmitted packets (Byte)
system.comm_monitor_dma_devices0.readBurstLengthHist::48-51            0      0.00%      0.00% # Histogram of burst lengths of transmitted packets (Byte)
system.comm_monitor_dma_devices0.readBurstLengthHist::52-55            0      0.00%      0.00% # Histogram of burst lengths of transmitted packets (Byte)
system.comm_monitor_dma_devices0.readBurstLengthHist::56-59            0      0.00%      0.00% # Histogram of burst lengths of transmitted packets (Byte)
system.comm_monitor_dma_devices0.readBurstLengthHist::60-63            0      0.00%      0.00% # Histogram of burst lengths of transmitted packets (Byte)
system.comm_monitor_dma_devices0.readBurstLengthHist::64-67            1    100.00%    100.00% # Histogram of burst lengths of transmitted packets (Byte)
system.comm_monitor_dma_devices0.readBurstLengthHist::68-71            0      0.00%    100.00% # Histogram of burst lengths of transmitted packets (Byte)
system.comm_monitor_dma_devices0.readBurstLengthHist::72-75            0      0.00%    100.00% # Histogram of burst lengths of transmitted packets (Byte)
system.comm_monitor_dma_devices0.readBurstLengthHist::76-79            0      0.00%    100.00% # Histogram of burst lengths of transmitted packets (Byte)
system.comm_monitor_dma_devices0.readBurstLengthHist::total            1                       # Histogram of burst lengths of transmitted packets (Byte)
system.comm_monitor_dma_devices0.writeBurstLengthHist::samples            0                       # Histogram of burst lengths of transmitted packets (Byte)
system.comm_monitor_dma_devices0.writeBurstLengthHist::mean          nan                       # Histogram of burst lengths of transmitted packets (Byte)
system.comm_monitor_dma_devices0.writeBurstLengthHist::gmean          nan                       # Histogram of burst lengths of transmitted packets (Byte)
system.comm_monitor_dma_devices0.writeBurstLengthHist::stdev          nan                       # Histogram of burst lengths of transmitted packets (Byte)
system.comm_monitor_dma_devices0.writeBurstLengthHist::0            0                       # Histogram of burst lengths of transmitted packets (Byte)
system.comm_monitor_dma_devices0.writeBurstLengthHist::1            0                       # Histogram of burst lengths of transmitted packets (Byte)
system.comm_monitor_dma_devices0.writeBurstLengthHist::2            0                       # Histogram of burst lengths of transmitted packets (Byte)
system.comm_monitor_dma_devices0.writeBurstLengthHist::3            0                       # Histogram of burst lengths of transmitted packets (Byte)
system.comm_monitor_dma_devices0.writeBurstLengthHist::4            0                       # Histogram of burst lengths of transmitted packets (Byte)
system.comm_monitor_dma_devices0.writeBurstLengthHist::5            0                       # Histogram of burst lengths of transmitted packets (Byte)
system.comm_monitor_dma_devices0.writeBurstLengthHist::6            0                       # Histogram of burst lengths of transmitted packets (Byte)
system.comm_monitor_dma_devices0.writeBurstLengthHist::7            0                       # Histogram of burst lengths of transmitted packets (Byte)
system.comm_monitor_dma_devices0.writeBurstLengthHist::8            0                       # Histogram of burst lengths of transmitted packets (Byte)
system.comm_monitor_dma_devices0.writeBurstLengthHist::9            0                       # Histogram of burst lengths of transmitted packets (Byte)
system.comm_monitor_dma_devices0.writeBurstLengthHist::10            0                       # Histogram of burst lengths of transmitted packets (Byte)
system.comm_monitor_dma_devices0.writeBurstLengthHist::11            0                       # Histogram of burst lengths of transmitted packets (Byte)
system.comm_monitor_dma_devices0.writeBurstLengthHist::12            0                       # Histogram of burst lengths of transmitted packets (Byte)
system.comm_monitor_dma_devices0.writeBurstLengthHist::13            0                       # Histogram of burst lengths of transmitted packets (Byte)
system.comm_monitor_dma_devices0.writeBurstLengthHist::14            0                       # Histogram of burst lengths of transmitted packets (Byte)
system.comm_monitor_dma_devices0.writeBurstLengthHist::15            0                       # Histogram of burst lengths of transmitted packets (Byte)
system.comm_monitor_dma_devices0.writeBurstLengthHist::16            0                       # Histogram of burst lengths of transmitted packets (Byte)
system.comm_monitor_dma_devices0.writeBurstLengthHist::17            0                       # Histogram of burst lengths of transmitted packets (Byte)
system.comm_monitor_dma_devices0.writeBurstLengthHist::18            0                       # Histogram of burst lengths of transmitted packets (Byte)
system.comm_monitor_dma_devices0.writeBurstLengthHist::19            0                       # Histogram of burst lengths of transmitted packets (Byte)
system.comm_monitor_dma_devices0.writeBurstLengthHist::total            0                       # Histogram of burst lengths of transmitted packets (Byte)
system.comm_monitor_dma_devices0.readBandwidthHist::samples            0                       # Histogram of read bandwidth per sample period ((Byte/Second))
system.comm_monitor_dma_devices0.readBandwidthHist::mean          nan                       # Histogram of read bandwidth per sample period ((Byte/Second))
system.comm_monitor_dma_devices0.readBandwidthHist::gmean          nan                       # Histogram of read bandwidth per sample period ((Byte/Second))
system.comm_monitor_dma_devices0.readBandwidthHist::stdev          nan                       # Histogram of read bandwidth per sample period ((Byte/Second))
system.comm_monitor_dma_devices0.readBandwidthHist::0            0                       # Histogram of read bandwidth per sample period ((Byte/Second))
system.comm_monitor_dma_devices0.readBandwidthHist::1            0                       # Histogram of read bandwidth per sample period ((Byte/Second))
system.comm_monitor_dma_devices0.readBandwidthHist::2            0                       # Histogram of read bandwidth per sample period ((Byte/Second))
system.comm_monitor_dma_devices0.readBandwidthHist::3            0                       # Histogram of read bandwidth per sample period ((Byte/Second))
system.comm_monitor_dma_devices0.readBandwidthHist::4            0                       # Histogram of read bandwidth per sample period ((Byte/Second))
system.comm_monitor_dma_devices0.readBandwidthHist::5            0                       # Histogram of read bandwidth per sample period ((Byte/Second))
system.comm_monitor_dma_devices0.readBandwidthHist::6            0                       # Histogram of read bandwidth per sample period ((Byte/Second))
system.comm_monitor_dma_devices0.readBandwidthHist::7            0                       # Histogram of read bandwidth per sample period ((Byte/Second))
system.comm_monitor_dma_devices0.readBandwidthHist::8            0                       # Histogram of read bandwidth per sample period ((Byte/Second))
system.comm_monitor_dma_devices0.readBandwidthHist::9            0                       # Histogram of read bandwidth per sample period ((Byte/Second))
system.comm_monitor_dma_devices0.readBandwidthHist::10            0                       # Histogram of read bandwidth per sample period ((Byte/Second))
system.comm_monitor_dma_devices0.readBandwidthHist::11            0                       # Histogram of read bandwidth per sample period ((Byte/Second))
system.comm_monitor_dma_devices0.readBandwidthHist::12            0                       # Histogram of read bandwidth per sample period ((Byte/Second))
system.comm_monitor_dma_devices0.readBandwidthHist::13            0                       # Histogram of read bandwidth per sample period ((Byte/Second))
system.comm_monitor_dma_devices0.readBandwidthHist::14            0                       # Histogram of read bandwidth per sample period ((Byte/Second))
system.comm_monitor_dma_devices0.readBandwidthHist::15            0                       # Histogram of read bandwidth per sample period ((Byte/Second))
system.comm_monitor_dma_devices0.readBandwidthHist::16            0                       # Histogram of read bandwidth per sample period ((Byte/Second))
system.comm_monitor_dma_devices0.readBandwidthHist::17            0                       # Histogram of read bandwidth per sample period ((Byte/Second))
system.comm_monitor_dma_devices0.readBandwidthHist::18            0                       # Histogram of read bandwidth per sample period ((Byte/Second))
system.comm_monitor_dma_devices0.readBandwidthHist::19            0                       # Histogram of read bandwidth per sample period ((Byte/Second))
system.comm_monitor_dma_devices0.readBandwidthHist::total            0                       # Histogram of read bandwidth per sample period ((Byte/Second))
system.comm_monitor_dma_devices0.totalReadBytes            0                       # Number of bytes read (Byte)
system.comm_monitor_dma_devices0.averageReadBandwidth            0                       # Average read bandwidth ((Byte/Second))
system.comm_monitor_dma_devices0.writeBandwidthHist::samples            0                       # Histogram of write bandwidth ((Byte/Second))
system.comm_monitor_dma_devices0.writeBandwidthHist::mean          nan                       # Histogram of write bandwidth ((Byte/Second))
system.comm_monitor_dma_devices0.writeBandwidthHist::gmean          nan                       # Histogram of write bandwidth ((Byte/Second))
system.comm_monitor_dma_devices0.writeBandwidthHist::stdev          nan                       # Histogram of write bandwidth ((Byte/Second))
system.comm_monitor_dma_devices0.writeBandwidthHist::0            0                       # Histogram of write bandwidth ((Byte/Second))
system.comm_monitor_dma_devices0.writeBandwidthHist::1            0                       # Histogram of write bandwidth ((Byte/Second))
system.comm_monitor_dma_devices0.writeBandwidthHist::2            0                       # Histogram of write bandwidth ((Byte/Second))
system.comm_monitor_dma_devices0.writeBandwidthHist::3            0                       # Histogram of write bandwidth ((Byte/Second))
system.comm_monitor_dma_devices0.writeBandwidthHist::4            0                       # Histogram of write bandwidth ((Byte/Second))
system.comm_monitor_dma_devices0.writeBandwidthHist::5            0                       # Histogram of write bandwidth ((Byte/Second))
system.comm_monitor_dma_devices0.writeBandwidthHist::6            0                       # Histogram of write bandwidth ((Byte/Second))
system.comm_monitor_dma_devices0.writeBandwidthHist::7            0                       # Histogram of write bandwidth ((Byte/Second))
system.comm_monitor_dma_devices0.writeBandwidthHist::8            0                       # Histogram of write bandwidth ((Byte/Second))
system.comm_monitor_dma_devices0.writeBandwidthHist::9            0                       # Histogram of write bandwidth ((Byte/Second))
system.comm_monitor_dma_devices0.writeBandwidthHist::10            0                       # Histogram of write bandwidth ((Byte/Second))
system.comm_monitor_dma_devices0.writeBandwidthHist::11            0                       # Histogram of write bandwidth ((Byte/Second))
system.comm_monitor_dma_devices0.writeBandwidthHist::12            0                       # Histogram of write bandwidth ((Byte/Second))
system.comm_monitor_dma_devices0.writeBandwidthHist::13            0                       # Histogram of write bandwidth ((Byte/Second))
system.comm_monitor_dma_devices0.writeBandwidthHist::14            0                       # Histogram of write bandwidth ((Byte/Second))
system.comm_monitor_dma_devices0.writeBandwidthHist::15            0                       # Histogram of write bandwidth ((Byte/Second))
system.comm_monitor_dma_devices0.writeBandwidthHist::16            0                       # Histogram of write bandwidth ((Byte/Second))
system.comm_monitor_dma_devices0.writeBandwidthHist::17            0                       # Histogram of write bandwidth ((Byte/Second))
system.comm_monitor_dma_devices0.writeBandwidthHist::18            0                       # Histogram of write bandwidth ((Byte/Second))
system.comm_monitor_dma_devices0.writeBandwidthHist::19            0                       # Histogram of write bandwidth ((Byte/Second))
system.comm_monitor_dma_devices0.writeBandwidthHist::total            0                       # Histogram of write bandwidth ((Byte/Second))
system.comm_monitor_dma_devices0.totalWrittenBytes            0                       # Number of bytes written ((Byte/Second))
system.comm_monitor_dma_devices0.averageWriteBandwidth            0                       # Average write bandwidth ((Byte/Second))
system.comm_monitor_dma_devices0.readLatencyHist::samples            0                       # Read request-response latency (Tick)
system.comm_monitor_dma_devices0.readLatencyHist::mean          nan                       # Read request-response latency (Tick)
system.comm_monitor_dma_devices0.readLatencyHist::gmean          nan                       # Read request-response latency (Tick)
system.comm_monitor_dma_devices0.readLatencyHist::stdev          nan                       # Read request-response latency (Tick)
system.comm_monitor_dma_devices0.readLatencyHist::0            0                       # Read request-response latency (Tick)
system.comm_monitor_dma_devices0.readLatencyHist::1            0                       # Read request-response latency (Tick)
system.comm_monitor_dma_devices0.readLatencyHist::2            0                       # Read request-response latency (Tick)
system.comm_monitor_dma_devices0.readLatencyHist::3            0                       # Read request-response latency (Tick)
system.comm_monitor_dma_devices0.readLatencyHist::4            0                       # Read request-response latency (Tick)
system.comm_monitor_dma_devices0.readLatencyHist::5            0                       # Read request-response latency (Tick)
system.comm_monitor_dma_devices0.readLatencyHist::6            0                       # Read request-response latency (Tick)
system.comm_monitor_dma_devices0.readLatencyHist::7            0                       # Read request-response latency (Tick)
system.comm_monitor_dma_devices0.readLatencyHist::8            0                       # Read request-response latency (Tick)
system.comm_monitor_dma_devices0.readLatencyHist::9            0                       # Read request-response latency (Tick)
system.comm_monitor_dma_devices0.readLatencyHist::10            0                       # Read request-response latency (Tick)
system.comm_monitor_dma_devices0.readLatencyHist::11            0                       # Read request-response latency (Tick)
system.comm_monitor_dma_devices0.readLatencyHist::12            0                       # Read request-response latency (Tick)
system.comm_monitor_dma_devices0.readLatencyHist::13            0                       # Read request-response latency (Tick)
system.comm_monitor_dma_devices0.readLatencyHist::14            0                       # Read request-response latency (Tick)
system.comm_monitor_dma_devices0.readLatencyHist::15            0                       # Read request-response latency (Tick)
system.comm_monitor_dma_devices0.readLatencyHist::16            0                       # Read request-response latency (Tick)
system.comm_monitor_dma_devices0.readLatencyHist::17            0                       # Read request-response latency (Tick)
system.comm_monitor_dma_devices0.readLatencyHist::18            0                       # Read request-response latency (Tick)
system.comm_monitor_dma_devices0.readLatencyHist::19            0                       # Read request-response latency (Tick)
system.comm_monitor_dma_devices0.readLatencyHist::total            0                       # Read request-response latency (Tick)
system.comm_monitor_dma_devices0.writeLatencyHist::samples            0                       # Write request-response latency (Tick)
system.comm_monitor_dma_devices0.writeLatencyHist::mean          nan                       # Write request-response latency (Tick)
system.comm_monitor_dma_devices0.writeLatencyHist::gmean          nan                       # Write request-response latency (Tick)
system.comm_monitor_dma_devices0.writeLatencyHist::stdev          nan                       # Write request-response latency (Tick)
system.comm_monitor_dma_devices0.writeLatencyHist::0            0                       # Write request-response latency (Tick)
system.comm_monitor_dma_devices0.writeLatencyHist::1            0                       # Write request-response latency (Tick)
system.comm_monitor_dma_devices0.writeLatencyHist::2            0                       # Write request-response latency (Tick)
system.comm_monitor_dma_devices0.writeLatencyHist::3            0                       # Write request-response latency (Tick)
system.comm_monitor_dma_devices0.writeLatencyHist::4            0                       # Write request-response latency (Tick)
system.comm_monitor_dma_devices0.writeLatencyHist::5            0                       # Write request-response latency (Tick)
system.comm_monitor_dma_devices0.writeLatencyHist::6            0                       # Write request-response latency (Tick)
system.comm_monitor_dma_devices0.writeLatencyHist::7            0                       # Write request-response latency (Tick)
system.comm_monitor_dma_devices0.writeLatencyHist::8            0                       # Write request-response latency (Tick)
system.comm_monitor_dma_devices0.writeLatencyHist::9            0                       # Write request-response latency (Tick)
system.comm_monitor_dma_devices0.writeLatencyHist::10            0                       # Write request-response latency (Tick)
system.comm_monitor_dma_devices0.writeLatencyHist::11            0                       # Write request-response latency (Tick)
system.comm_monitor_dma_devices0.writeLatencyHist::12            0                       # Write request-response latency (Tick)
system.comm_monitor_dma_devices0.writeLatencyHist::13            0                       # Write request-response latency (Tick)
system.comm_monitor_dma_devices0.writeLatencyHist::14            0                       # Write request-response latency (Tick)
system.comm_monitor_dma_devices0.writeLatencyHist::15            0                       # Write request-response latency (Tick)
system.comm_monitor_dma_devices0.writeLatencyHist::16            0                       # Write request-response latency (Tick)
system.comm_monitor_dma_devices0.writeLatencyHist::17            0                       # Write request-response latency (Tick)
system.comm_monitor_dma_devices0.writeLatencyHist::18            0                       # Write request-response latency (Tick)
system.comm_monitor_dma_devices0.writeLatencyHist::19            0                       # Write request-response latency (Tick)
system.comm_monitor_dma_devices0.writeLatencyHist::total            0                       # Write request-response latency (Tick)
system.comm_monitor_dma_devices0.ittReadRead::samples            0                       # Read-to-read inter transaction time (Tick)
system.comm_monitor_dma_devices0.ittReadRead::mean          nan                       # Read-to-read inter transaction time (Tick)
system.comm_monitor_dma_devices0.ittReadRead::stdev          nan                       # Read-to-read inter transaction time (Tick)
system.comm_monitor_dma_devices0.ittReadRead::underflows            0                       # Read-to-read inter transaction time (Tick)
system.comm_monitor_dma_devices0.ittReadRead::1-5000            0                       # Read-to-read inter transaction time (Tick)
system.comm_monitor_dma_devices0.ittReadRead::5001-10000            0                       # Read-to-read inter transaction time (Tick)
system.comm_monitor_dma_devices0.ittReadRead::10001-15000            0                       # Read-to-read inter transaction time (Tick)
system.comm_monitor_dma_devices0.ittReadRead::15001-20000            0                       # Read-to-read inter transaction time (Tick)
system.comm_monitor_dma_devices0.ittReadRead::20001-25000            0                       # Read-to-read inter transaction time (Tick)
system.comm_monitor_dma_devices0.ittReadRead::25001-30000            0                       # Read-to-read inter transaction time (Tick)
system.comm_monitor_dma_devices0.ittReadRead::30001-35000            0                       # Read-to-read inter transaction time (Tick)
system.comm_monitor_dma_devices0.ittReadRead::35001-40000            0                       # Read-to-read inter transaction time (Tick)
system.comm_monitor_dma_devices0.ittReadRead::40001-45000            0                       # Read-to-read inter transaction time (Tick)
system.comm_monitor_dma_devices0.ittReadRead::45001-50000            0                       # Read-to-read inter transaction time (Tick)
system.comm_monitor_dma_devices0.ittReadRead::50001-55000            0                       # Read-to-read inter transaction time (Tick)
system.comm_monitor_dma_devices0.ittReadRead::55001-60000            0                       # Read-to-read inter transaction time (Tick)
system.comm_monitor_dma_devices0.ittReadRead::60001-65000            0                       # Read-to-read inter transaction time (Tick)
system.comm_monitor_dma_devices0.ittReadRead::65001-70000            0                       # Read-to-read inter transaction time (Tick)
system.comm_monitor_dma_devices0.ittReadRead::70001-75000            0                       # Read-to-read inter transaction time (Tick)
system.comm_monitor_dma_devices0.ittReadRead::75001-80000            0                       # Read-to-read inter transaction time (Tick)
system.comm_monitor_dma_devices0.ittReadRead::80001-85000            0                       # Read-to-read inter transaction time (Tick)
system.comm_monitor_dma_devices0.ittReadRead::85001-90000            0                       # Read-to-read inter transaction time (Tick)
system.comm_monitor_dma_devices0.ittReadRead::90001-95000            0                       # Read-to-read inter transaction time (Tick)
system.comm_monitor_dma_devices0.ittReadRead::95001-100000            0                       # Read-to-read inter transaction time (Tick)
system.comm_monitor_dma_devices0.ittReadRead::overflows            0                       # Read-to-read inter transaction time (Tick)
system.comm_monitor_dma_devices0.ittReadRead::min_value            0                       # Read-to-read inter transaction time (Tick)
system.comm_monitor_dma_devices0.ittReadRead::max_value            0                       # Read-to-read inter transaction time (Tick)
system.comm_monitor_dma_devices0.ittReadRead::total            0                       # Read-to-read inter transaction time (Tick)
system.comm_monitor_dma_devices0.ittWriteWrite::samples            0                       # Write-to-write inter transaction time (Tick)
system.comm_monitor_dma_devices0.ittWriteWrite::mean          nan                       # Write-to-write inter transaction time (Tick)
system.comm_monitor_dma_devices0.ittWriteWrite::stdev          nan                       # Write-to-write inter transaction time (Tick)
system.comm_monitor_dma_devices0.ittWriteWrite::underflows            0                       # Write-to-write inter transaction time (Tick)
system.comm_monitor_dma_devices0.ittWriteWrite::1-5000            0                       # Write-to-write inter transaction time (Tick)
system.comm_monitor_dma_devices0.ittWriteWrite::5001-10000            0                       # Write-to-write inter transaction time (Tick)
system.comm_monitor_dma_devices0.ittWriteWrite::10001-15000            0                       # Write-to-write inter transaction time (Tick)
system.comm_monitor_dma_devices0.ittWriteWrite::15001-20000            0                       # Write-to-write inter transaction time (Tick)
system.comm_monitor_dma_devices0.ittWriteWrite::20001-25000            0                       # Write-to-write inter transaction time (Tick)
system.comm_monitor_dma_devices0.ittWriteWrite::25001-30000            0                       # Write-to-write inter transaction time (Tick)
system.comm_monitor_dma_devices0.ittWriteWrite::30001-35000            0                       # Write-to-write inter transaction time (Tick)
system.comm_monitor_dma_devices0.ittWriteWrite::35001-40000            0                       # Write-to-write inter transaction time (Tick)
system.comm_monitor_dma_devices0.ittWriteWrite::40001-45000            0                       # Write-to-write inter transaction time (Tick)
system.comm_monitor_dma_devices0.ittWriteWrite::45001-50000            0                       # Write-to-write inter transaction time (Tick)
system.comm_monitor_dma_devices0.ittWriteWrite::50001-55000            0                       # Write-to-write inter transaction time (Tick)
system.comm_monitor_dma_devices0.ittWriteWrite::55001-60000            0                       # Write-to-write inter transaction time (Tick)
system.comm_monitor_dma_devices0.ittWriteWrite::60001-65000            0                       # Write-to-write inter transaction time (Tick)
system.comm_monitor_dma_devices0.ittWriteWrite::65001-70000            0                       # Write-to-write inter transaction time (Tick)
system.comm_monitor_dma_devices0.ittWriteWrite::70001-75000            0                       # Write-to-write inter transaction time (Tick)
system.comm_monitor_dma_devices0.ittWriteWrite::75001-80000            0                       # Write-to-write inter transaction time (Tick)
system.comm_monitor_dma_devices0.ittWriteWrite::80001-85000            0                       # Write-to-write inter transaction time (Tick)
system.comm_monitor_dma_devices0.ittWriteWrite::85001-90000            0                       # Write-to-write inter transaction time (Tick)
system.comm_monitor_dma_devices0.ittWriteWrite::90001-95000            0                       # Write-to-write inter transaction time (Tick)
system.comm_monitor_dma_devices0.ittWriteWrite::95001-100000            0                       # Write-to-write inter transaction time (Tick)
system.comm_monitor_dma_devices0.ittWriteWrite::overflows            0                       # Write-to-write inter transaction time (Tick)
system.comm_monitor_dma_devices0.ittWriteWrite::min_value            0                       # Write-to-write inter transaction time (Tick)
system.comm_monitor_dma_devices0.ittWriteWrite::max_value            0                       # Write-to-write inter transaction time (Tick)
system.comm_monitor_dma_devices0.ittWriteWrite::total            0                       # Write-to-write inter transaction time (Tick)
system.comm_monitor_dma_devices0.ittReqReq::samples            0                       # Request-to-request inter transaction time (Tick)
system.comm_monitor_dma_devices0.ittReqReq::mean          nan                       # Request-to-request inter transaction time (Tick)
system.comm_monitor_dma_devices0.ittReqReq::stdev          nan                       # Request-to-request inter transaction time (Tick)
system.comm_monitor_dma_devices0.ittReqReq::underflows            0                       # Request-to-request inter transaction time (Tick)
system.comm_monitor_dma_devices0.ittReqReq::1-5000            0                       # Request-to-request inter transaction time (Tick)
system.comm_monitor_dma_devices0.ittReqReq::5001-10000            0                       # Request-to-request inter transaction time (Tick)
system.comm_monitor_dma_devices0.ittReqReq::10001-15000            0                       # Request-to-request inter transaction time (Tick)
system.comm_monitor_dma_devices0.ittReqReq::15001-20000            0                       # Request-to-request inter transaction time (Tick)
system.comm_monitor_dma_devices0.ittReqReq::20001-25000            0                       # Request-to-request inter transaction time (Tick)
system.comm_monitor_dma_devices0.ittReqReq::25001-30000            0                       # Request-to-request inter transaction time (Tick)
system.comm_monitor_dma_devices0.ittReqReq::30001-35000            0                       # Request-to-request inter transaction time (Tick)
system.comm_monitor_dma_devices0.ittReqReq::35001-40000            0                       # Request-to-request inter transaction time (Tick)
system.comm_monitor_dma_devices0.ittReqReq::40001-45000            0                       # Request-to-request inter transaction time (Tick)
system.comm_monitor_dma_devices0.ittReqReq::45001-50000            0                       # Request-to-request inter transaction time (Tick)
system.comm_monitor_dma_devices0.ittReqReq::50001-55000            0                       # Request-to-request inter transaction time (Tick)
system.comm_monitor_dma_devices0.ittReqReq::55001-60000            0                       # Request-to-request inter transaction time (Tick)
system.comm_monitor_dma_devices0.ittReqReq::60001-65000            0                       # Request-to-request inter transaction time (Tick)
system.comm_monitor_dma_devices0.ittReqReq::65001-70000            0                       # Request-to-request inter transaction time (Tick)
system.comm_monitor_dma_devices0.ittReqReq::70001-75000            0                       # Request-to-request inter transaction time (Tick)
system.comm_monitor_dma_devices0.ittReqReq::75001-80000            0                       # Request-to-request inter transaction time (Tick)
system.comm_monitor_dma_devices0.ittReqReq::80001-85000            0                       # Request-to-request inter transaction time (Tick)
system.comm_monitor_dma_devices0.ittReqReq::85001-90000            0                       # Request-to-request inter transaction time (Tick)
system.comm_monitor_dma_devices0.ittReqReq::90001-95000            0                       # Request-to-request inter transaction time (Tick)
system.comm_monitor_dma_devices0.ittReqReq::95001-100000            0                       # Request-to-request inter transaction time (Tick)
system.comm_monitor_dma_devices0.ittReqReq::overflows            0                       # Request-to-request inter transaction time (Tick)
system.comm_monitor_dma_devices0.ittReqReq::min_value            0                       # Request-to-request inter transaction time (Tick)
system.comm_monitor_dma_devices0.ittReqReq::max_value            0                       # Request-to-request inter transaction time (Tick)
system.comm_monitor_dma_devices0.ittReqReq::total            0                       # Request-to-request inter transaction time (Tick)
system.comm_monitor_dma_devices0.outstandingReadsHist::samples            0                       # Outstanding read transactions (Count)
system.comm_monitor_dma_devices0.outstandingReadsHist::mean          nan                       # Outstanding read transactions (Count)
system.comm_monitor_dma_devices0.outstandingReadsHist::gmean          nan                       # Outstanding read transactions (Count)
system.comm_monitor_dma_devices0.outstandingReadsHist::stdev          nan                       # Outstanding read transactions (Count)
system.comm_monitor_dma_devices0.outstandingReadsHist::0            0                       # Outstanding read transactions (Count)
system.comm_monitor_dma_devices0.outstandingReadsHist::1            0                       # Outstanding read transactions (Count)
system.comm_monitor_dma_devices0.outstandingReadsHist::2            0                       # Outstanding read transactions (Count)
system.comm_monitor_dma_devices0.outstandingReadsHist::3            0                       # Outstanding read transactions (Count)
system.comm_monitor_dma_devices0.outstandingReadsHist::4            0                       # Outstanding read transactions (Count)
system.comm_monitor_dma_devices0.outstandingReadsHist::5            0                       # Outstanding read transactions (Count)
system.comm_monitor_dma_devices0.outstandingReadsHist::6            0                       # Outstanding read transactions (Count)
system.comm_monitor_dma_devices0.outstandingReadsHist::7            0                       # Outstanding read transactions (Count)
system.comm_monitor_dma_devices0.outstandingReadsHist::8            0                       # Outstanding read transactions (Count)
system.comm_monitor_dma_devices0.outstandingReadsHist::9            0                       # Outstanding read transactions (Count)
system.comm_monitor_dma_devices0.outstandingReadsHist::10            0                       # Outstanding read transactions (Count)
system.comm_monitor_dma_devices0.outstandingReadsHist::11            0                       # Outstanding read transactions (Count)
system.comm_monitor_dma_devices0.outstandingReadsHist::12            0                       # Outstanding read transactions (Count)
system.comm_monitor_dma_devices0.outstandingReadsHist::13            0                       # Outstanding read transactions (Count)
system.comm_monitor_dma_devices0.outstandingReadsHist::14            0                       # Outstanding read transactions (Count)
system.comm_monitor_dma_devices0.outstandingReadsHist::15            0                       # Outstanding read transactions (Count)
system.comm_monitor_dma_devices0.outstandingReadsHist::16            0                       # Outstanding read transactions (Count)
system.comm_monitor_dma_devices0.outstandingReadsHist::17            0                       # Outstanding read transactions (Count)
system.comm_monitor_dma_devices0.outstandingReadsHist::18            0                       # Outstanding read transactions (Count)
system.comm_monitor_dma_devices0.outstandingReadsHist::19            0                       # Outstanding read transactions (Count)
system.comm_monitor_dma_devices0.outstandingReadsHist::total            0                       # Outstanding read transactions (Count)
system.comm_monitor_dma_devices0.outstandingWritesHist::samples            0                       # Outstanding write transactions (Count)
system.comm_monitor_dma_devices0.outstandingWritesHist::mean          nan                       # Outstanding write transactions (Count)
system.comm_monitor_dma_devices0.outstandingWritesHist::gmean          nan                       # Outstanding write transactions (Count)
system.comm_monitor_dma_devices0.outstandingWritesHist::stdev          nan                       # Outstanding write transactions (Count)
system.comm_monitor_dma_devices0.outstandingWritesHist::0            0                       # Outstanding write transactions (Count)
system.comm_monitor_dma_devices0.outstandingWritesHist::1            0                       # Outstanding write transactions (Count)
system.comm_monitor_dma_devices0.outstandingWritesHist::2            0                       # Outstanding write transactions (Count)
system.comm_monitor_dma_devices0.outstandingWritesHist::3            0                       # Outstanding write transactions (Count)
system.comm_monitor_dma_devices0.outstandingWritesHist::4            0                       # Outstanding write transactions (Count)
system.comm_monitor_dma_devices0.outstandingWritesHist::5            0                       # Outstanding write transactions (Count)
system.comm_monitor_dma_devices0.outstandingWritesHist::6            0                       # Outstanding write transactions (Count)
system.comm_monitor_dma_devices0.outstandingWritesHist::7            0                       # Outstanding write transactions (Count)
system.comm_monitor_dma_devices0.outstandingWritesHist::8            0                       # Outstanding write transactions (Count)
system.comm_monitor_dma_devices0.outstandingWritesHist::9            0                       # Outstanding write transactions (Count)
system.comm_monitor_dma_devices0.outstandingWritesHist::10            0                       # Outstanding write transactions (Count)
system.comm_monitor_dma_devices0.outstandingWritesHist::11            0                       # Outstanding write transactions (Count)
system.comm_monitor_dma_devices0.outstandingWritesHist::12            0                       # Outstanding write transactions (Count)
system.comm_monitor_dma_devices0.outstandingWritesHist::13            0                       # Outstanding write transactions (Count)
system.comm_monitor_dma_devices0.outstandingWritesHist::14            0                       # Outstanding write transactions (Count)
system.comm_monitor_dma_devices0.outstandingWritesHist::15            0                       # Outstanding write transactions (Count)
system.comm_monitor_dma_devices0.outstandingWritesHist::16            0                       # Outstanding write transactions (Count)
system.comm_monitor_dma_devices0.outstandingWritesHist::17            0                       # Outstanding write transactions (Count)
system.comm_monitor_dma_devices0.outstandingWritesHist::18            0                       # Outstanding write transactions (Count)
system.comm_monitor_dma_devices0.outstandingWritesHist::19            0                       # Outstanding write transactions (Count)
system.comm_monitor_dma_devices0.outstandingWritesHist::total            0                       # Outstanding write transactions (Count)
system.comm_monitor_dma_devices0.readTransHist::samples            0                       # Histogram of read transactions per sample period (Count)
system.comm_monitor_dma_devices0.readTransHist::mean          nan                       # Histogram of read transactions per sample period (Count)
system.comm_monitor_dma_devices0.readTransHist::gmean          nan                       # Histogram of read transactions per sample period (Count)
system.comm_monitor_dma_devices0.readTransHist::stdev          nan                       # Histogram of read transactions per sample period (Count)
system.comm_monitor_dma_devices0.readTransHist::0            0                       # Histogram of read transactions per sample period (Count)
system.comm_monitor_dma_devices0.readTransHist::1            0                       # Histogram of read transactions per sample period (Count)
system.comm_monitor_dma_devices0.readTransHist::2            0                       # Histogram of read transactions per sample period (Count)
system.comm_monitor_dma_devices0.readTransHist::3            0                       # Histogram of read transactions per sample period (Count)
system.comm_monitor_dma_devices0.readTransHist::4            0                       # Histogram of read transactions per sample period (Count)
system.comm_monitor_dma_devices0.readTransHist::5            0                       # Histogram of read transactions per sample period (Count)
system.comm_monitor_dma_devices0.readTransHist::6            0                       # Histogram of read transactions per sample period (Count)
system.comm_monitor_dma_devices0.readTransHist::7            0                       # Histogram of read transactions per sample period (Count)
system.comm_monitor_dma_devices0.readTransHist::8            0                       # Histogram of read transactions per sample period (Count)
system.comm_monitor_dma_devices0.readTransHist::9            0                       # Histogram of read transactions per sample period (Count)
system.comm_monitor_dma_devices0.readTransHist::10            0                       # Histogram of read transactions per sample period (Count)
system.comm_monitor_dma_devices0.readTransHist::11            0                       # Histogram of read transactions per sample period (Count)
system.comm_monitor_dma_devices0.readTransHist::12            0                       # Histogram of read transactions per sample period (Count)
system.comm_monitor_dma_devices0.readTransHist::13            0                       # Histogram of read transactions per sample period (Count)
system.comm_monitor_dma_devices0.readTransHist::14            0                       # Histogram of read transactions per sample period (Count)
system.comm_monitor_dma_devices0.readTransHist::15            0                       # Histogram of read transactions per sample period (Count)
system.comm_monitor_dma_devices0.readTransHist::16            0                       # Histogram of read transactions per sample period (Count)
system.comm_monitor_dma_devices0.readTransHist::17            0                       # Histogram of read transactions per sample period (Count)
system.comm_monitor_dma_devices0.readTransHist::18            0                       # Histogram of read transactions per sample period (Count)
system.comm_monitor_dma_devices0.readTransHist::19            0                       # Histogram of read transactions per sample period (Count)
system.comm_monitor_dma_devices0.readTransHist::total            0                       # Histogram of read transactions per sample period (Count)
system.comm_monitor_dma_devices0.writeTransHist::samples            0                       # Histogram of write transactions per sample period (Count)
system.comm_monitor_dma_devices0.writeTransHist::mean          nan                       # Histogram of write transactions per sample period (Count)
system.comm_monitor_dma_devices0.writeTransHist::gmean          nan                       # Histogram of write transactions per sample period (Count)
system.comm_monitor_dma_devices0.writeTransHist::stdev          nan                       # Histogram of write transactions per sample period (Count)
system.comm_monitor_dma_devices0.writeTransHist::0            0                       # Histogram of write transactions per sample period (Count)
system.comm_monitor_dma_devices0.writeTransHist::1            0                       # Histogram of write transactions per sample period (Count)
system.comm_monitor_dma_devices0.writeTransHist::2            0                       # Histogram of write transactions per sample period (Count)
system.comm_monitor_dma_devices0.writeTransHist::3            0                       # Histogram of write transactions per sample period (Count)
system.comm_monitor_dma_devices0.writeTransHist::4            0                       # Histogram of write transactions per sample period (Count)
system.comm_monitor_dma_devices0.writeTransHist::5            0                       # Histogram of write transactions per sample period (Count)
system.comm_monitor_dma_devices0.writeTransHist::6            0                       # Histogram of write transactions per sample period (Count)
system.comm_monitor_dma_devices0.writeTransHist::7            0                       # Histogram of write transactions per sample period (Count)
system.comm_monitor_dma_devices0.writeTransHist::8            0                       # Histogram of write transactions per sample period (Count)
system.comm_monitor_dma_devices0.writeTransHist::9            0                       # Histogram of write transactions per sample period (Count)
system.comm_monitor_dma_devices0.writeTransHist::10            0                       # Histogram of write transactions per sample period (Count)
system.comm_monitor_dma_devices0.writeTransHist::11            0                       # Histogram of write transactions per sample period (Count)
system.comm_monitor_dma_devices0.writeTransHist::12            0                       # Histogram of write transactions per sample period (Count)
system.comm_monitor_dma_devices0.writeTransHist::13            0                       # Histogram of write transactions per sample period (Count)
system.comm_monitor_dma_devices0.writeTransHist::14            0                       # Histogram of write transactions per sample period (Count)
system.comm_monitor_dma_devices0.writeTransHist::15            0                       # Histogram of write transactions per sample period (Count)
system.comm_monitor_dma_devices0.writeTransHist::16            0                       # Histogram of write transactions per sample period (Count)
system.comm_monitor_dma_devices0.writeTransHist::17            0                       # Histogram of write transactions per sample period (Count)
system.comm_monitor_dma_devices0.writeTransHist::18            0                       # Histogram of write transactions per sample period (Count)
system.comm_monitor_dma_devices0.writeTransHist::19            0                       # Histogram of write transactions per sample period (Count)
system.comm_monitor_dma_devices0.writeTransHist::total            0                       # Histogram of write transactions per sample period (Count)
system.comm_monitor_dma_devices1.readBurstLengthHist::samples            0                       # Histogram of burst lengths of transmitted packets (Byte)
system.comm_monitor_dma_devices1.readBurstLengthHist::mean          nan                       # Histogram of burst lengths of transmitted packets (Byte)
system.comm_monitor_dma_devices1.readBurstLengthHist::gmean          nan                       # Histogram of burst lengths of transmitted packets (Byte)
system.comm_monitor_dma_devices1.readBurstLengthHist::stdev          nan                       # Histogram of burst lengths of transmitted packets (Byte)
system.comm_monitor_dma_devices1.readBurstLengthHist::0            0                       # Histogram of burst lengths of transmitted packets (Byte)
system.comm_monitor_dma_devices1.readBurstLengthHist::1            0                       # Histogram of burst lengths of transmitted packets (Byte)
system.comm_monitor_dma_devices1.readBurstLengthHist::2            0                       # Histogram of burst lengths of transmitted packets (Byte)
system.comm_monitor_dma_devices1.readBurstLengthHist::3            0                       # Histogram of burst lengths of transmitted packets (Byte)
system.comm_monitor_dma_devices1.readBurstLengthHist::4            0                       # Histogram of burst lengths of transmitted packets (Byte)
system.comm_monitor_dma_devices1.readBurstLengthHist::5            0                       # Histogram of burst lengths of transmitted packets (Byte)
system.comm_monitor_dma_devices1.readBurstLengthHist::6            0                       # Histogram of burst lengths of transmitted packets (Byte)
system.comm_monitor_dma_devices1.readBurstLengthHist::7            0                       # Histogram of burst lengths of transmitted packets (Byte)
system.comm_monitor_dma_devices1.readBurstLengthHist::8            0                       # Histogram of burst lengths of transmitted packets (Byte)
system.comm_monitor_dma_devices1.readBurstLengthHist::9            0                       # Histogram of burst lengths of transmitted packets (Byte)
system.comm_monitor_dma_devices1.readBurstLengthHist::10            0                       # Histogram of burst lengths of transmitted packets (Byte)
system.comm_monitor_dma_devices1.readBurstLengthHist::11            0                       # Histogram of burst lengths of transmitted packets (Byte)
system.comm_monitor_dma_devices1.readBurstLengthHist::12            0                       # Histogram of burst lengths of transmitted packets (Byte)
system.comm_monitor_dma_devices1.readBurstLengthHist::13            0                       # Histogram of burst lengths of transmitted packets (Byte)
system.comm_monitor_dma_devices1.readBurstLengthHist::14            0                       # Histogram of burst lengths of transmitted packets (Byte)
system.comm_monitor_dma_devices1.readBurstLengthHist::15            0                       # Histogram of burst lengths of transmitted packets (Byte)
system.comm_monitor_dma_devices1.readBurstLengthHist::16            0                       # Histogram of burst lengths of transmitted packets (Byte)
system.comm_monitor_dma_devices1.readBurstLengthHist::17            0                       # Histogram of burst lengths of transmitted packets (Byte)
system.comm_monitor_dma_devices1.readBurstLengthHist::18            0                       # Histogram of burst lengths of transmitted packets (Byte)
system.comm_monitor_dma_devices1.readBurstLengthHist::19            0                       # Histogram of burst lengths of transmitted packets (Byte)
system.comm_monitor_dma_devices1.readBurstLengthHist::total            0                       # Histogram of burst lengths of transmitted packets (Byte)
system.comm_monitor_dma_devices1.writeBurstLengthHist::samples            0                       # Histogram of burst lengths of transmitted packets (Byte)
system.comm_monitor_dma_devices1.writeBurstLengthHist::mean          nan                       # Histogram of burst lengths of transmitted packets (Byte)
system.comm_monitor_dma_devices1.writeBurstLengthHist::gmean          nan                       # Histogram of burst lengths of transmitted packets (Byte)
system.comm_monitor_dma_devices1.writeBurstLengthHist::stdev          nan                       # Histogram of burst lengths of transmitted packets (Byte)
system.comm_monitor_dma_devices1.writeBurstLengthHist::0            0                       # Histogram of burst lengths of transmitted packets (Byte)
system.comm_monitor_dma_devices1.writeBurstLengthHist::1            0                       # Histogram of burst lengths of transmitted packets (Byte)
system.comm_monitor_dma_devices1.writeBurstLengthHist::2            0                       # Histogram of burst lengths of transmitted packets (Byte)
system.comm_monitor_dma_devices1.writeBurstLengthHist::3            0                       # Histogram of burst lengths of transmitted packets (Byte)
system.comm_monitor_dma_devices1.writeBurstLengthHist::4            0                       # Histogram of burst lengths of transmitted packets (Byte)
system.comm_monitor_dma_devices1.writeBurstLengthHist::5            0                       # Histogram of burst lengths of transmitted packets (Byte)
system.comm_monitor_dma_devices1.writeBurstLengthHist::6            0                       # Histogram of burst lengths of transmitted packets (Byte)
system.comm_monitor_dma_devices1.writeBurstLengthHist::7            0                       # Histogram of burst lengths of transmitted packets (Byte)
system.comm_monitor_dma_devices1.writeBurstLengthHist::8            0                       # Histogram of burst lengths of transmitted packets (Byte)
system.comm_monitor_dma_devices1.writeBurstLengthHist::9            0                       # Histogram of burst lengths of transmitted packets (Byte)
system.comm_monitor_dma_devices1.writeBurstLengthHist::10            0                       # Histogram of burst lengths of transmitted packets (Byte)
system.comm_monitor_dma_devices1.writeBurstLengthHist::11            0                       # Histogram of burst lengths of transmitted packets (Byte)
system.comm_monitor_dma_devices1.writeBurstLengthHist::12            0                       # Histogram of burst lengths of transmitted packets (Byte)
system.comm_monitor_dma_devices1.writeBurstLengthHist::13            0                       # Histogram of burst lengths of transmitted packets (Byte)
system.comm_monitor_dma_devices1.writeBurstLengthHist::14            0                       # Histogram of burst lengths of transmitted packets (Byte)
system.comm_monitor_dma_devices1.writeBurstLengthHist::15            0                       # Histogram of burst lengths of transmitted packets (Byte)
system.comm_monitor_dma_devices1.writeBurstLengthHist::16            0                       # Histogram of burst lengths of transmitted packets (Byte)
system.comm_monitor_dma_devices1.writeBurstLengthHist::17            0                       # Histogram of burst lengths of transmitted packets (Byte)
system.comm_monitor_dma_devices1.writeBurstLengthHist::18            0                       # Histogram of burst lengths of transmitted packets (Byte)
system.comm_monitor_dma_devices1.writeBurstLengthHist::19            0                       # Histogram of burst lengths of transmitted packets (Byte)
system.comm_monitor_dma_devices1.writeBurstLengthHist::total            0                       # Histogram of burst lengths of transmitted packets (Byte)
system.comm_monitor_dma_devices1.readBandwidthHist::samples            0                       # Histogram of read bandwidth per sample period ((Byte/Second))
system.comm_monitor_dma_devices1.readBandwidthHist::mean          nan                       # Histogram of read bandwidth per sample period ((Byte/Second))
system.comm_monitor_dma_devices1.readBandwidthHist::gmean          nan                       # Histogram of read bandwidth per sample period ((Byte/Second))
system.comm_monitor_dma_devices1.readBandwidthHist::stdev          nan                       # Histogram of read bandwidth per sample period ((Byte/Second))
system.comm_monitor_dma_devices1.readBandwidthHist::0            0                       # Histogram of read bandwidth per sample period ((Byte/Second))
system.comm_monitor_dma_devices1.readBandwidthHist::1            0                       # Histogram of read bandwidth per sample period ((Byte/Second))
system.comm_monitor_dma_devices1.readBandwidthHist::2            0                       # Histogram of read bandwidth per sample period ((Byte/Second))
system.comm_monitor_dma_devices1.readBandwidthHist::3            0                       # Histogram of read bandwidth per sample period ((Byte/Second))
system.comm_monitor_dma_devices1.readBandwidthHist::4            0                       # Histogram of read bandwidth per sample period ((Byte/Second))
system.comm_monitor_dma_devices1.readBandwidthHist::5            0                       # Histogram of read bandwidth per sample period ((Byte/Second))
system.comm_monitor_dma_devices1.readBandwidthHist::6            0                       # Histogram of read bandwidth per sample period ((Byte/Second))
system.comm_monitor_dma_devices1.readBandwidthHist::7            0                       # Histogram of read bandwidth per sample period ((Byte/Second))
system.comm_monitor_dma_devices1.readBandwidthHist::8            0                       # Histogram of read bandwidth per sample period ((Byte/Second))
system.comm_monitor_dma_devices1.readBandwidthHist::9            0                       # Histogram of read bandwidth per sample period ((Byte/Second))
system.comm_monitor_dma_devices1.readBandwidthHist::10            0                       # Histogram of read bandwidth per sample period ((Byte/Second))
system.comm_monitor_dma_devices1.readBandwidthHist::11            0                       # Histogram of read bandwidth per sample period ((Byte/Second))
system.comm_monitor_dma_devices1.readBandwidthHist::12            0                       # Histogram of read bandwidth per sample period ((Byte/Second))
system.comm_monitor_dma_devices1.readBandwidthHist::13            0                       # Histogram of read bandwidth per sample period ((Byte/Second))
system.comm_monitor_dma_devices1.readBandwidthHist::14            0                       # Histogram of read bandwidth per sample period ((Byte/Second))
system.comm_monitor_dma_devices1.readBandwidthHist::15            0                       # Histogram of read bandwidth per sample period ((Byte/Second))
system.comm_monitor_dma_devices1.readBandwidthHist::16            0                       # Histogram of read bandwidth per sample period ((Byte/Second))
system.comm_monitor_dma_devices1.readBandwidthHist::17            0                       # Histogram of read bandwidth per sample period ((Byte/Second))
system.comm_monitor_dma_devices1.readBandwidthHist::18            0                       # Histogram of read bandwidth per sample period ((Byte/Second))
system.comm_monitor_dma_devices1.readBandwidthHist::19            0                       # Histogram of read bandwidth per sample period ((Byte/Second))
system.comm_monitor_dma_devices1.readBandwidthHist::total            0                       # Histogram of read bandwidth per sample period ((Byte/Second))
system.comm_monitor_dma_devices1.totalReadBytes            0                       # Number of bytes read (Byte)
system.comm_monitor_dma_devices1.averageReadBandwidth            0                       # Average read bandwidth ((Byte/Second))
system.comm_monitor_dma_devices1.writeBandwidthHist::samples            0                       # Histogram of write bandwidth ((Byte/Second))
system.comm_monitor_dma_devices1.writeBandwidthHist::mean          nan                       # Histogram of write bandwidth ((Byte/Second))
system.comm_monitor_dma_devices1.writeBandwidthHist::gmean          nan                       # Histogram of write bandwidth ((Byte/Second))
system.comm_monitor_dma_devices1.writeBandwidthHist::stdev          nan                       # Histogram of write bandwidth ((Byte/Second))
system.comm_monitor_dma_devices1.writeBandwidthHist::0            0                       # Histogram of write bandwidth ((Byte/Second))
system.comm_monitor_dma_devices1.writeBandwidthHist::1            0                       # Histogram of write bandwidth ((Byte/Second))
system.comm_monitor_dma_devices1.writeBandwidthHist::2            0                       # Histogram of write bandwidth ((Byte/Second))
system.comm_monitor_dma_devices1.writeBandwidthHist::3            0                       # Histogram of write bandwidth ((Byte/Second))
system.comm_monitor_dma_devices1.writeBandwidthHist::4            0                       # Histogram of write bandwidth ((Byte/Second))
system.comm_monitor_dma_devices1.writeBandwidthHist::5            0                       # Histogram of write bandwidth ((Byte/Second))
system.comm_monitor_dma_devices1.writeBandwidthHist::6            0                       # Histogram of write bandwidth ((Byte/Second))
system.comm_monitor_dma_devices1.writeBandwidthHist::7            0                       # Histogram of write bandwidth ((Byte/Second))
system.comm_monitor_dma_devices1.writeBandwidthHist::8            0                       # Histogram of write bandwidth ((Byte/Second))
system.comm_monitor_dma_devices1.writeBandwidthHist::9            0                       # Histogram of write bandwidth ((Byte/Second))
system.comm_monitor_dma_devices1.writeBandwidthHist::10            0                       # Histogram of write bandwidth ((Byte/Second))
system.comm_monitor_dma_devices1.writeBandwidthHist::11            0                       # Histogram of write bandwidth ((Byte/Second))
system.comm_monitor_dma_devices1.writeBandwidthHist::12            0                       # Histogram of write bandwidth ((Byte/Second))
system.comm_monitor_dma_devices1.writeBandwidthHist::13            0                       # Histogram of write bandwidth ((Byte/Second))
system.comm_monitor_dma_devices1.writeBandwidthHist::14            0                       # Histogram of write bandwidth ((Byte/Second))
system.comm_monitor_dma_devices1.writeBandwidthHist::15            0                       # Histogram of write bandwidth ((Byte/Second))
system.comm_monitor_dma_devices1.writeBandwidthHist::16            0                       # Histogram of write bandwidth ((Byte/Second))
system.comm_monitor_dma_devices1.writeBandwidthHist::17            0                       # Histogram of write bandwidth ((Byte/Second))
system.comm_monitor_dma_devices1.writeBandwidthHist::18            0                       # Histogram of write bandwidth ((Byte/Second))
system.comm_monitor_dma_devices1.writeBandwidthHist::19            0                       # Histogram of write bandwidth ((Byte/Second))
system.comm_monitor_dma_devices1.writeBandwidthHist::total            0                       # Histogram of write bandwidth ((Byte/Second))
system.comm_monitor_dma_devices1.totalWrittenBytes            0                       # Number of bytes written ((Byte/Second))
system.comm_monitor_dma_devices1.averageWriteBandwidth            0                       # Average write bandwidth ((Byte/Second))
system.comm_monitor_dma_devices1.readLatencyHist::samples            0                       # Read request-response latency (Tick)
system.comm_monitor_dma_devices1.readLatencyHist::mean          nan                       # Read request-response latency (Tick)
system.comm_monitor_dma_devices1.readLatencyHist::gmean          nan                       # Read request-response latency (Tick)
system.comm_monitor_dma_devices1.readLatencyHist::stdev          nan                       # Read request-response latency (Tick)
system.comm_monitor_dma_devices1.readLatencyHist::0            0                       # Read request-response latency (Tick)
system.comm_monitor_dma_devices1.readLatencyHist::1            0                       # Read request-response latency (Tick)
system.comm_monitor_dma_devices1.readLatencyHist::2            0                       # Read request-response latency (Tick)
system.comm_monitor_dma_devices1.readLatencyHist::3            0                       # Read request-response latency (Tick)
system.comm_monitor_dma_devices1.readLatencyHist::4            0                       # Read request-response latency (Tick)
system.comm_monitor_dma_devices1.readLatencyHist::5            0                       # Read request-response latency (Tick)
system.comm_monitor_dma_devices1.readLatencyHist::6            0                       # Read request-response latency (Tick)
system.comm_monitor_dma_devices1.readLatencyHist::7            0                       # Read request-response latency (Tick)
system.comm_monitor_dma_devices1.readLatencyHist::8            0                       # Read request-response latency (Tick)
system.comm_monitor_dma_devices1.readLatencyHist::9            0                       # Read request-response latency (Tick)
system.comm_monitor_dma_devices1.readLatencyHist::10            0                       # Read request-response latency (Tick)
system.comm_monitor_dma_devices1.readLatencyHist::11            0                       # Read request-response latency (Tick)
system.comm_monitor_dma_devices1.readLatencyHist::12            0                       # Read request-response latency (Tick)
system.comm_monitor_dma_devices1.readLatencyHist::13            0                       # Read request-response latency (Tick)
system.comm_monitor_dma_devices1.readLatencyHist::14            0                       # Read request-response latency (Tick)
system.comm_monitor_dma_devices1.readLatencyHist::15            0                       # Read request-response latency (Tick)
system.comm_monitor_dma_devices1.readLatencyHist::16            0                       # Read request-response latency (Tick)
system.comm_monitor_dma_devices1.readLatencyHist::17            0                       # Read request-response latency (Tick)
system.comm_monitor_dma_devices1.readLatencyHist::18            0                       # Read request-response latency (Tick)
system.comm_monitor_dma_devices1.readLatencyHist::19            0                       # Read request-response latency (Tick)
system.comm_monitor_dma_devices1.readLatencyHist::total            0                       # Read request-response latency (Tick)
system.comm_monitor_dma_devices1.writeLatencyHist::samples            0                       # Write request-response latency (Tick)
system.comm_monitor_dma_devices1.writeLatencyHist::mean          nan                       # Write request-response latency (Tick)
system.comm_monitor_dma_devices1.writeLatencyHist::gmean          nan                       # Write request-response latency (Tick)
system.comm_monitor_dma_devices1.writeLatencyHist::stdev          nan                       # Write request-response latency (Tick)
system.comm_monitor_dma_devices1.writeLatencyHist::0            0                       # Write request-response latency (Tick)
system.comm_monitor_dma_devices1.writeLatencyHist::1            0                       # Write request-response latency (Tick)
system.comm_monitor_dma_devices1.writeLatencyHist::2            0                       # Write request-response latency (Tick)
system.comm_monitor_dma_devices1.writeLatencyHist::3            0                       # Write request-response latency (Tick)
system.comm_monitor_dma_devices1.writeLatencyHist::4            0                       # Write request-response latency (Tick)
system.comm_monitor_dma_devices1.writeLatencyHist::5            0                       # Write request-response latency (Tick)
system.comm_monitor_dma_devices1.writeLatencyHist::6            0                       # Write request-response latency (Tick)
system.comm_monitor_dma_devices1.writeLatencyHist::7            0                       # Write request-response latency (Tick)
system.comm_monitor_dma_devices1.writeLatencyHist::8            0                       # Write request-response latency (Tick)
system.comm_monitor_dma_devices1.writeLatencyHist::9            0                       # Write request-response latency (Tick)
system.comm_monitor_dma_devices1.writeLatencyHist::10            0                       # Write request-response latency (Tick)
system.comm_monitor_dma_devices1.writeLatencyHist::11            0                       # Write request-response latency (Tick)
system.comm_monitor_dma_devices1.writeLatencyHist::12            0                       # Write request-response latency (Tick)
system.comm_monitor_dma_devices1.writeLatencyHist::13            0                       # Write request-response latency (Tick)
system.comm_monitor_dma_devices1.writeLatencyHist::14            0                       # Write request-response latency (Tick)
system.comm_monitor_dma_devices1.writeLatencyHist::15            0                       # Write request-response latency (Tick)
system.comm_monitor_dma_devices1.writeLatencyHist::16            0                       # Write request-response latency (Tick)
system.comm_monitor_dma_devices1.writeLatencyHist::17            0                       # Write request-response latency (Tick)
system.comm_monitor_dma_devices1.writeLatencyHist::18            0                       # Write request-response latency (Tick)
system.comm_monitor_dma_devices1.writeLatencyHist::19            0                       # Write request-response latency (Tick)
system.comm_monitor_dma_devices1.writeLatencyHist::total            0                       # Write request-response latency (Tick)
system.comm_monitor_dma_devices1.ittReadRead::samples            0                       # Read-to-read inter transaction time (Tick)
system.comm_monitor_dma_devices1.ittReadRead::mean          nan                       # Read-to-read inter transaction time (Tick)
system.comm_monitor_dma_devices1.ittReadRead::stdev          nan                       # Read-to-read inter transaction time (Tick)
system.comm_monitor_dma_devices1.ittReadRead::underflows            0                       # Read-to-read inter transaction time (Tick)
system.comm_monitor_dma_devices1.ittReadRead::1-5000            0                       # Read-to-read inter transaction time (Tick)
system.comm_monitor_dma_devices1.ittReadRead::5001-10000            0                       # Read-to-read inter transaction time (Tick)
system.comm_monitor_dma_devices1.ittReadRead::10001-15000            0                       # Read-to-read inter transaction time (Tick)
system.comm_monitor_dma_devices1.ittReadRead::15001-20000            0                       # Read-to-read inter transaction time (Tick)
system.comm_monitor_dma_devices1.ittReadRead::20001-25000            0                       # Read-to-read inter transaction time (Tick)
system.comm_monitor_dma_devices1.ittReadRead::25001-30000            0                       # Read-to-read inter transaction time (Tick)
system.comm_monitor_dma_devices1.ittReadRead::30001-35000            0                       # Read-to-read inter transaction time (Tick)
system.comm_monitor_dma_devices1.ittReadRead::35001-40000            0                       # Read-to-read inter transaction time (Tick)
system.comm_monitor_dma_devices1.ittReadRead::40001-45000            0                       # Read-to-read inter transaction time (Tick)
system.comm_monitor_dma_devices1.ittReadRead::45001-50000            0                       # Read-to-read inter transaction time (Tick)
system.comm_monitor_dma_devices1.ittReadRead::50001-55000            0                       # Read-to-read inter transaction time (Tick)
system.comm_monitor_dma_devices1.ittReadRead::55001-60000            0                       # Read-to-read inter transaction time (Tick)
system.comm_monitor_dma_devices1.ittReadRead::60001-65000            0                       # Read-to-read inter transaction time (Tick)
system.comm_monitor_dma_devices1.ittReadRead::65001-70000            0                       # Read-to-read inter transaction time (Tick)
system.comm_monitor_dma_devices1.ittReadRead::70001-75000            0                       # Read-to-read inter transaction time (Tick)
system.comm_monitor_dma_devices1.ittReadRead::75001-80000            0                       # Read-to-read inter transaction time (Tick)
system.comm_monitor_dma_devices1.ittReadRead::80001-85000            0                       # Read-to-read inter transaction time (Tick)
system.comm_monitor_dma_devices1.ittReadRead::85001-90000            0                       # Read-to-read inter transaction time (Tick)
system.comm_monitor_dma_devices1.ittReadRead::90001-95000            0                       # Read-to-read inter transaction time (Tick)
system.comm_monitor_dma_devices1.ittReadRead::95001-100000            0                       # Read-to-read inter transaction time (Tick)
system.comm_monitor_dma_devices1.ittReadRead::overflows            0                       # Read-to-read inter transaction time (Tick)
system.comm_monitor_dma_devices1.ittReadRead::min_value            0                       # Read-to-read inter transaction time (Tick)
system.comm_monitor_dma_devices1.ittReadRead::max_value            0                       # Read-to-read inter transaction time (Tick)
system.comm_monitor_dma_devices1.ittReadRead::total            0                       # Read-to-read inter transaction time (Tick)
system.comm_monitor_dma_devices1.ittWriteWrite::samples            0                       # Write-to-write inter transaction time (Tick)
system.comm_monitor_dma_devices1.ittWriteWrite::mean          nan                       # Write-to-write inter transaction time (Tick)
system.comm_monitor_dma_devices1.ittWriteWrite::stdev          nan                       # Write-to-write inter transaction time (Tick)
system.comm_monitor_dma_devices1.ittWriteWrite::underflows            0                       # Write-to-write inter transaction time (Tick)
system.comm_monitor_dma_devices1.ittWriteWrite::1-5000            0                       # Write-to-write inter transaction time (Tick)
system.comm_monitor_dma_devices1.ittWriteWrite::5001-10000            0                       # Write-to-write inter transaction time (Tick)
system.comm_monitor_dma_devices1.ittWriteWrite::10001-15000            0                       # Write-to-write inter transaction time (Tick)
system.comm_monitor_dma_devices1.ittWriteWrite::15001-20000            0                       # Write-to-write inter transaction time (Tick)
system.comm_monitor_dma_devices1.ittWriteWrite::20001-25000            0                       # Write-to-write inter transaction time (Tick)
system.comm_monitor_dma_devices1.ittWriteWrite::25001-30000            0                       # Write-to-write inter transaction time (Tick)
system.comm_monitor_dma_devices1.ittWriteWrite::30001-35000            0                       # Write-to-write inter transaction time (Tick)
system.comm_monitor_dma_devices1.ittWriteWrite::35001-40000            0                       # Write-to-write inter transaction time (Tick)
system.comm_monitor_dma_devices1.ittWriteWrite::40001-45000            0                       # Write-to-write inter transaction time (Tick)
system.comm_monitor_dma_devices1.ittWriteWrite::45001-50000            0                       # Write-to-write inter transaction time (Tick)
system.comm_monitor_dma_devices1.ittWriteWrite::50001-55000            0                       # Write-to-write inter transaction time (Tick)
system.comm_monitor_dma_devices1.ittWriteWrite::55001-60000            0                       # Write-to-write inter transaction time (Tick)
system.comm_monitor_dma_devices1.ittWriteWrite::60001-65000            0                       # Write-to-write inter transaction time (Tick)
system.comm_monitor_dma_devices1.ittWriteWrite::65001-70000            0                       # Write-to-write inter transaction time (Tick)
system.comm_monitor_dma_devices1.ittWriteWrite::70001-75000            0                       # Write-to-write inter transaction time (Tick)
system.comm_monitor_dma_devices1.ittWriteWrite::75001-80000            0                       # Write-to-write inter transaction time (Tick)
system.comm_monitor_dma_devices1.ittWriteWrite::80001-85000            0                       # Write-to-write inter transaction time (Tick)
system.comm_monitor_dma_devices1.ittWriteWrite::85001-90000            0                       # Write-to-write inter transaction time (Tick)
system.comm_monitor_dma_devices1.ittWriteWrite::90001-95000            0                       # Write-to-write inter transaction time (Tick)
system.comm_monitor_dma_devices1.ittWriteWrite::95001-100000            0                       # Write-to-write inter transaction time (Tick)
system.comm_monitor_dma_devices1.ittWriteWrite::overflows            0                       # Write-to-write inter transaction time (Tick)
system.comm_monitor_dma_devices1.ittWriteWrite::min_value            0                       # Write-to-write inter transaction time (Tick)
system.comm_monitor_dma_devices1.ittWriteWrite::max_value            0                       # Write-to-write inter transaction time (Tick)
system.comm_monitor_dma_devices1.ittWriteWrite::total            0                       # Write-to-write inter transaction time (Tick)
system.comm_monitor_dma_devices1.ittReqReq::samples            0                       # Request-to-request inter transaction time (Tick)
system.comm_monitor_dma_devices1.ittReqReq::mean          nan                       # Request-to-request inter transaction time (Tick)
system.comm_monitor_dma_devices1.ittReqReq::stdev          nan                       # Request-to-request inter transaction time (Tick)
system.comm_monitor_dma_devices1.ittReqReq::underflows            0                       # Request-to-request inter transaction time (Tick)
system.comm_monitor_dma_devices1.ittReqReq::1-5000            0                       # Request-to-request inter transaction time (Tick)
system.comm_monitor_dma_devices1.ittReqReq::5001-10000            0                       # Request-to-request inter transaction time (Tick)
system.comm_monitor_dma_devices1.ittReqReq::10001-15000            0                       # Request-to-request inter transaction time (Tick)
system.comm_monitor_dma_devices1.ittReqReq::15001-20000            0                       # Request-to-request inter transaction time (Tick)
system.comm_monitor_dma_devices1.ittReqReq::20001-25000            0                       # Request-to-request inter transaction time (Tick)
system.comm_monitor_dma_devices1.ittReqReq::25001-30000            0                       # Request-to-request inter transaction time (Tick)
system.comm_monitor_dma_devices1.ittReqReq::30001-35000            0                       # Request-to-request inter transaction time (Tick)
system.comm_monitor_dma_devices1.ittReqReq::35001-40000            0                       # Request-to-request inter transaction time (Tick)
[...]
system.mem_ctrls9.wrQLenPdf::42                     0                       # What write queue length does an incoming req see (Count)
system.mem_ctrls9.wrQLenPdf::43                     0                       # What write queue length does an incoming req see (Count)
system.mem_ctrls9.wrQLenPdf::44                     0                       # What write queue length does an incoming req see (Count)
system.mem_ctrls9.wrQLenPdf::45                     0                       # What write queue length does an incoming req see (Count)
system.mem_ctrls9.wrQLenPdf::46                     0                       # What write queue length does an incoming req see (Count)
system.mem_ctrls9.wrQLenPdf::47                     0                       # What write queue length does an incoming req see (Count)
system.mem_ctrls9.wrQLenPdf::48                     0                       # What write queue length does an incoming req see (Count)
system.mem_ctrls9.wrQLenPdf::49                     0                       # What write queue length does an incoming req see (Count)
system.mem_ctrls9.wrQLenPdf::50                     0                       # What write queue length does an incoming req see (Count)
system.mem_ctrls9.wrQLenPdf::51                     0                       # What write queue length does an incoming req see (Count)
system.mem_ctrls9.wrQLenPdf::52                     0                       # What write queue length does an incoming req see (Count)
system.mem_ctrls9.wrQLenPdf::53                     0                       # What write queue length does an incoming req see (Count)
system.mem_ctrls9.wrQLenPdf::54                     0                       # What write queue length does an incoming req see (Count)
system.mem_ctrls9.wrQLenPdf::55                     0                       # What write queue length does an incoming req see (Count)
system.mem_ctrls9.wrQLenPdf::56                     0                       # What write queue length does an incoming req see (Count)
system.mem_ctrls9.wrQLenPdf::57                     0                       # What write queue length does an incoming req see (Count)
system.mem_ctrls9.wrQLenPdf::58                     0                       # What write queue length does an incoming req see (Count)
system.mem_ctrls9.wrQLenPdf::59                     0                       # What write queue length does an incoming req see (Count)
system.mem_ctrls9.wrQLenPdf::60                     0                       # What write queue length does an incoming req see (Count)
system.mem_ctrls9.wrQLenPdf::61                     0                       # What write queue length does an incoming req see (Count)
system.mem_ctrls9.wrQLenPdf::62                     0                       # What write queue length does an incoming req see (Count)
system.mem_ctrls9.wrQLenPdf::63                     0                       # What write queue length does an incoming req see (Count)
system.mem_ctrls9.bytesReadWrQ                      0                       # Total number of bytes read from write queue (Byte)
system.mem_ctrls9.bytesReadSys                      0                       # Total read bytes from the system interface side (Byte)
system.mem_ctrls9.bytesWrittenSys                   0                       # Total written bytes from the system interface side (Byte)
system.mem_ctrls9.avgRdBWSys               0.00000000                       # Average system read bandwidth in Byte/s ((Byte/Second))
system.mem_ctrls9.avgWrBWSys               0.00000000                       # Average system write bandwidth in Byte/s ((Byte/Second))
system.mem_ctrls9.totGap                            0                       # Total gap between requests (Tick)
system.mem_ctrls9.avgGap                          nan                       # Average gap between requests ((Tick/Count))
system.mem_ctrls9.dram.readBursts                   0                       # Number of DRAM read bursts (Count)
system.mem_ctrls9.dram.writeBursts                  0                       # Number of DRAM write bursts (Count)
system.mem_ctrls9.dram.perBankRdBursts::0            0                       # Per bank write bursts (Count)
system.mem_ctrls9.dram.perBankRdBursts::1            0                       # Per bank write bursts (Count)
system.mem_ctrls9.dram.perBankRdBursts::2            0                       # Per bank write bursts (Count)
system.mem_ctrls9.dram.perBankRdBursts::3            0                       # Per bank write bursts (Count)
system.mem_ctrls9.dram.perBankRdBursts::4            0                       # Per bank write bursts (Count)
system.mem_ctrls9.dram.perBankRdBursts::5            0                       # Per bank write bursts (Count)
system.mem_ctrls9.dram.perBankRdBursts::6            0                       # Per bank write bursts (Count)
system.mem_ctrls9.dram.perBankRdBursts::7            0                       # Per bank write bursts (Count)
system.mem_ctrls9.dram.perBankRdBursts::8            0                       # Per bank write bursts (Count)
system.mem_ctrls9.dram.perBankRdBursts::9            0                       # Per bank write bursts (Count)
system.mem_ctrls9.dram.perBankRdBursts::10            0                       # Per bank write bursts (Count)
system.mem_ctrls9.dram.perBankRdBursts::11            0                       # Per bank write bursts (Count)
system.mem_ctrls9.dram.perBankRdBursts::12            0                       # Per bank write bursts (Count)
system.mem_ctrls9.dram.perBankRdBursts::13            0                       # Per bank write bursts (Count)
system.mem_ctrls9.dram.perBankRdBursts::14            0                       # Per bank write bursts (Count)
system.mem_ctrls9.dram.perBankRdBursts::15            0                       # Per bank write bursts (Count)
system.mem_ctrls9.dram.perBankRdBursts::16            0                       # Per bank write bursts (Count)
system.mem_ctrls9.dram.perBankRdBursts::17            0                       # Per bank write bursts (Count)
system.mem_ctrls9.dram.perBankRdBursts::18            0                       # Per bank write bursts (Count)
system.mem_ctrls9.dram.perBankRdBursts::19            0                       # Per bank write bursts (Count)
system.mem_ctrls9.dram.perBankRdBursts::20            0                       # Per bank write bursts (Count)
system.mem_ctrls9.dram.perBankRdBursts::21            0                       # Per bank write bursts (Count)
system.mem_ctrls9.dram.perBankRdBursts::22            0                       # Per bank write bursts (Count)
system.mem_ctrls9.dram.perBankRdBursts::23            0                       # Per bank write bursts (Count)
system.mem_ctrls9.dram.perBankRdBursts::24            0                       # Per bank write bursts (Count)
system.mem_ctrls9.dram.perBankRdBursts::25            0                       # Per bank write bursts (Count)
system.mem_ctrls9.dram.perBankRdBursts::26            0                       # Per bank write bursts (Count)
system.mem_ctrls9.dram.perBankRdBursts::27            0                       # Per bank write bursts (Count)
system.mem_ctrls9.dram.perBankRdBursts::28            0                       # Per bank write bursts (Count)
system.mem_ctrls9.dram.perBankRdBursts::29            0                       # Per bank write bursts (Count)
system.mem_ctrls9.dram.perBankRdBursts::30            0                       # Per bank write bursts (Count)
system.mem_ctrls9.dram.perBankRdBursts::31            0                       # Per bank write bursts (Count)
system.mem_ctrls9.dram.perBankWrBursts::0            0                       # Per bank write bursts (Count)
system.mem_ctrls9.dram.perBankWrBursts::1            0                       # Per bank write bursts (Count)
system.mem_ctrls9.dram.perBankWrBursts::2            0                       # Per bank write bursts (Count)
system.mem_ctrls9.dram.perBankWrBursts::3            0                       # Per bank write bursts (Count)
system.mem_ctrls9.dram.perBankWrBursts::4            0                       # Per bank write bursts (Count)
system.mem_ctrls9.dram.perBankWrBursts::5            0                       # Per bank write bursts (Count)
system.mem_ctrls9.dram.perBankWrBursts::6            0                       # Per bank write bursts (Count)
system.mem_ctrls9.dram.perBankWrBursts::7            0                       # Per bank write bursts (Count)
system.mem_ctrls9.dram.perBankWrBursts::8            0                       # Per bank write bursts (Count)
system.mem_ctrls9.dram.perBankWrBursts::9            0                       # Per bank write bursts (Count)
system.mem_ctrls9.dram.perBankWrBursts::10            0                       # Per bank write bursts (Count)
system.mem_ctrls9.dram.perBankWrBursts::11            0                       # Per bank write bursts (Count)
system.mem_ctrls9.dram.perBankWrBursts::12            0                       # Per bank write bursts (Count)
system.mem_ctrls9.dram.perBankWrBursts::13            0                       # Per bank write bursts (Count)
system.mem_ctrls9.dram.perBankWrBursts::14            0                       # Per bank write bursts (Count)
system.mem_ctrls9.dram.perBankWrBursts::15            0                       # Per bank write bursts (Count)
system.mem_ctrls9.dram.perBankWrBursts::16            0                       # Per bank write bursts (Count)
system.mem_ctrls9.dram.perBankWrBursts::17            0                       # Per bank write bursts (Count)
system.mem_ctrls9.dram.perBankWrBursts::18            0                       # Per bank write bursts (Count)
system.mem_ctrls9.dram.perBankWrBursts::19            0                       # Per bank write bursts (Count)
system.mem_ctrls9.dram.perBankWrBursts::20            0                       # Per bank write bursts (Count)
system.mem_ctrls9.dram.perBankWrBursts::21            0                       # Per bank write bursts (Count)
system.mem_ctrls9.dram.perBankWrBursts::22            0                       # Per bank write bursts (Count)
system.mem_ctrls9.dram.perBankWrBursts::23            0                       # Per bank write bursts (Count)
system.mem_ctrls9.dram.perBankWrBursts::24            0                       # Per bank write bursts (Count)
system.mem_ctrls9.dram.perBankWrBursts::25            0                       # Per bank write bursts (Count)
system.mem_ctrls9.dram.perBankWrBursts::26            0                       # Per bank write bursts (Count)
system.mem_ctrls9.dram.perBankWrBursts::27            0                       # Per bank write bursts (Count)
system.mem_ctrls9.dram.perBankWrBursts::28            0                       # Per bank write bursts (Count)
system.mem_ctrls9.dram.perBankWrBursts::29            0                       # Per bank write bursts (Count)
system.mem_ctrls9.dram.perBankWrBursts::30            0                       # Per bank write bursts (Count)
system.mem_ctrls9.dram.perBankWrBursts::31            0                       # Per bank write bursts (Count)
system.mem_ctrls9.dram.totQLat                      0                       # Total ticks spent queuing (Tick)
system.mem_ctrls9.dram.totBusLat                    0                       # Total ticks spent in databus transfers (Tick)
system.mem_ctrls9.dram.totMemAccLat                 0                       # Total ticks spent from burst creation until serviced by the DRAM (Tick)
system.mem_ctrls9.dram.avgQLat                    nan                       # Average queueing delay per DRAM burst ((Tick/Count))
system.mem_ctrls9.dram.avgBusLat                  nan                       # Average bus latency per DRAM burst ((Tick/Count))
system.mem_ctrls9.dram.avgMemAccLat               nan                       # Average memory access latency per DRAM burst ((Tick/Count))
system.mem_ctrls9.dram.readRowHits                  0                       # Number of row buffer hits during reads (Count)
system.mem_ctrls9.dram.writeRowHits                 0                       # Number of row buffer hits during writes (Count)
system.mem_ctrls9.dram.readRowHitRate             nan                       # Row buffer hit rate for reads (Ratio)
system.mem_ctrls9.dram.writeRowHitRate            nan                       # Row buffer hit rate for writes (Ratio)
system.mem_ctrls9.dram.bytesRead                    0                       # Total bytes read (Byte)
system.mem_ctrls9.dram.bytesWritten                 0                       # Total bytes written (Byte)
system.mem_ctrls9.dram.avgRdBW                      0                       # Average DRAM read bandwidth in MiBytes/s ((Byte/Second))
system.mem_ctrls9.dram.avgWrBW                      0                       # Average DRAM write bandwidth in MiBytes/s ((Byte/Second))
system.mem_ctrls9.dram.peakBW                17621.00                       # Theoretical peak bandwidth in MiByte/s ((Byte/Second))
system.mem_ctrls9.dram.busUtil                   0.00                       # Data bus utilization in percentage (Ratio)
system.mem_ctrls9.dram.busUtilRead               0.00                       # Data bus utilization in percentage for reads (Ratio)
system.mem_ctrls9.dram.busUtilWrite              0.00                       # Data bus utilization in percentage for writes (Ratio)
system.mem_ctrls9.dram.pageHitRate                nan                       # Row buffer hit rate, read and write combined (Ratio)
system.mem_ctrls9.dram.power_state.pwrStateResidencyTicks::UNDEFINED        50000                       # Cumulative time (in ticks) in various power states (Tick)
system.mem_ctrls9.dram.rank0.actEnergy              0                       # Energy for activate commands per rank (pJ) (Joule)
system.mem_ctrls9.dram.rank0.preEnergy              0                       # Energy for precharge commands per rank (pJ) (Joule)
system.mem_ctrls9.dram.rank0.readEnergy             0                       # Energy for read commands per rank (pJ) (Joule)
system.mem_ctrls9.dram.rank0.writeEnergy            0                       # Energy for write commands per rank (pJ) (Joule)
system.mem_ctrls9.dram.rank0.refreshEnergy            0                       # Energy for refresh commands per rank (pJ) (Joule)
system.mem_ctrls9.dram.rank0.actBackEnergy            0                       # Energy for active background per rank (pJ) (Joule)
system.mem_ctrls9.dram.rank0.preBackEnergy 20399.491200                       # Energy for precharge background per rank (pJ) (Joule)
system.mem_ctrls9.dram.rank0.actPowerDownEnergy            0                       # Energy for active power-down per rank (pJ) (Joule)
system.mem_ctrls9.dram.rank0.prePowerDownEnergy            0                       # Energy for precharge power-down per rank (pJ) (Joule)
system.mem_ctrls9.dram.rank0.selfRefreshEnergy            0                       # Energy for self refresh per rank (pJ) (Joule)
system.mem_ctrls9.dram.rank0.totalEnergy 20399.491200                       # Total energy per rank (pJ) (Joule)
system.mem_ctrls9.dram.rank0.averagePower   407.989824                       # Core power per rank (mW) (Watt)
system.mem_ctrls9.dram.rank0.totalIdleTime            0                       # Total Idle time Per DRAM Rank (Tick)
system.mem_ctrls9.dram.rank0.pwrStateTime::IDLE        50000                       # Time in different power states (Tick)
system.mem_ctrls9.dram.rank0.pwrStateTime::REF            0                       # Time in different power states (Tick)
system.mem_ctrls9.dram.rank0.pwrStateTime::SREF            0                       # Time in different power states (Tick)
system.mem_ctrls9.dram.rank0.pwrStateTime::PRE_PDN            0                       # Time in different power states (Tick)
system.mem_ctrls9.dram.rank0.pwrStateTime::ACT            0                       # Time in different power states (Tick)
system.mem_ctrls9.dram.rank0.pwrStateTime::ACT_PDN            0                       # Time in different power states (Tick)
system.mem_ctrls9.power_state.pwrStateResidencyTicks::UNDEFINED        50000                       # Cumulative time (in ticks) in various power states (Tick)
system.membus.transDist::ReadReq                    1                       # Transaction distribution (Count)
system.membus.pktCount_system.comm_monitor_dma_devices0-mem_side_port::system.crossbars0.cpu_side_ports[0]            1                       # Packet count per connected requestor and responder (Count)
system.membus.pktCount_system.comm_monitor_dma_devices0-mem_side_port::total            1                       # Packet count per connected requestor and responder (Count)
system.membus.pktCount::total                       1                       # Packet count per connected requestor and responder (Count)
system.membus.snoops                                0                       # Total snoops (Count)
system.membus.snoopTraffic                          0                       # Total snoop traffic (Byte)
system.membus.snoopFanout::samples                  1                       # Request fanout histogram (Count)
system.membus.snoopFanout::mean                     0                       # Request fanout histogram (Count)
system.membus.snoopFanout::stdev                  nan                       # Request fanout histogram (Count)
system.membus.snoopFanout::underflows               0      0.00%      0.00% # Request fanout histogram (Count)
system.membus.snoopFanout::0                        1    100.00%    100.00% # Request fanout histogram (Count)
system.membus.snoopFanout::1                        0      0.00%    100.00% # Request fanout histogram (Count)
system.membus.snoopFanout::overflows                0      0.00%    100.00% # Request fanout histogram (Count)
system.membus.snoopFanout::min_value                0                       # Request fanout histogram (Count)
system.membus.snoopFanout::max_value                0                       # Request fanout histogram (Count)
system.membus.snoopFanout::total                    1                       # Request fanout histogram (Count)
system.membus.power_state.pwrStateResidencyTicks::UNDEFINED        50000                       # Cumulative time (in ticks) in various power states (Tick)
system.membus.reqLayer0.occupancy                1111                       # Layer occupancy (ticks) (Tick)
system.membus.reqLayer0.utilization               0.0                       # Layer utilization (Ratio)
system.membus.snoop_filter.totRequests              0                       # Total number of requests made to the snoop filter. (Count)
system.membus.snoop_filter.hitSingleRequests            0                       # Number of requests hitting in the snoop filter with a single holder of the requested data. (Count)
system.membus.snoop_filter.hitMultiRequests            0                       # Number of requests hitting in the snoop filter with multiple (>1) holders of the requested data. (Count)
system.membus.snoop_filter.totSnoops                0                       # Total number of snoops made to the snoop filter. (Count)
system.membus.snoop_filter.hitSingleSnoops            0                       # Number of snoops hitting in the snoop filter with a single holder of the requested data. (Count)
system.membus.snoop_filter.hitMultiSnoops            0                       # Number of snoops hitting in the snoop filter with multiple (>1) holders of the requested data. (Count)
system.voltage_domain.voltage                       1                       # Voltage in Volts (Volt)
system.workload.inst.arm                            0                       # number of arm instructions executed (Count)
system.workload.inst.quiesce                        0                       # number of quiesce instructions executed (Count)

---------- End Simulation Statistics   ----------
