Global frequency set at 1000000000000 ticks per second
gem5 Simulator System.  https://www.gem5.org
gem5 is copyrighted software; use the --copyright option for details.

gem5 version 23.0.1.0
gem5 compiled Feb 22 2024 03:25:38
gem5 started Feb 22 2024 07:34:11
gem5 executing on 403fa31dd0c1, pid 2836
command line: /home/gem5/build/ARM/gem5.opt --outdir /home/gem5/run_script/output_ruby_pytrafficgen /home/gem5/configs/example/ruby_pytrafficgen.py --network=garnet --topology FalconBusArch --num-cpus 2 --num-dmas 4 --num-dirs 4 --traffic_mode_cpu trace --traffic_mode_dma trace --trace_duration 500000000 --mem-type DDR5_4400_4x8 --sys-clock 900MHz --ruby-clock 600MHz

middk_debug] args.num_cpus : 2
middk_debug] args.num_dmas : 4
middk_debug] args.num_dirs : 4
middk_debug] hnf start_index_bit: 6
middk_debug] hnf block_size: 0
middk_debug]  <orphan System>.cpu0.l1i
middk_debug]  <orphan System>.cpu0.l1d
middk_debug]  <orphan System>.cpu0.l2
middk_debug]  <orphan System>.cpu1.l1i
middk_debug]  <orphan System>.cpu1.l1d
middk_debug]  <orphan System>.cpu1.l2
middk_debug]  <orphan System>.ruby.hnf.cntrl
middk_debug]  <orphan System>.ruby.snf0.cntrl
middk_debug]  <orphan System>.ruby.snf1.cntrl
middk_debug]  <orphan System>.ruby.snf2.cntrl
middk_debug]  <orphan System>.ruby.snf3.cntrl
middk_debug]  <orphan System>.ruby.dma_rni0.cntrl
middk_debug]  <orphan System>.ruby.dma_rni1.cntrl
middk_debug]  <orphan System>.ruby.dma_rni2.cntrl
middk_debug]  <orphan System>.ruby.dma_rni3.cntrl
Exiting @ tick 500000000 because system.cpu0 has encountered the exit state and will terminate the simulation.
