
---------- Begin Simulation Statistics ----------
simSeconds                                   0.000500                       # Number of seconds simulated (Second)
simTicks                                    500000000                       # Number of ticks simulated (Tick)
finalTick                                   500000000                       # Number of ticks from beginning of simulation (restored from checkpoints and never reset) (Tick)
simFreq                                  1000000000000                       # The number of ticks per simulated second ((Tick/Second))
hostSeconds                                      2.70                       # Real time elapsed on the host (Second)
hostTickRate                                184914094                       # The number of ticks simulated per host second (ticks/s) ((Tick/Second))
hostMemory                                  538239736                       # Number of bytes of host memory used (Byte)
system.clk_domain.clock                          1111                       # Clock period in ticks (Tick)
system.comm_monitor_dma_devices0.readBurstLengthHist::samples         9000                       # Histogram of burst lengths of transmitted packets (Byte)
system.comm_monitor_dma_devices0.readBurstLengthHist::mean           64                       # Histogram of burst lengths of transmitted packets (Byte)
system.comm_monitor_dma_devices0.readBurstLengthHist::gmean    64.000000                       # Histogram of burst lengths of transmitted packets (Byte)
system.comm_monitor_dma_devices0.readBurstLengthHist::stdev            0                       # Histogram of burst lengths of transmitted packets (Byte)
system.comm_monitor_dma_devices0.readBurstLengthHist::0-3            0      0.00%      0.00% # Histogram of burst lengths of transmitted packets (Byte)
system.comm_monitor_dma_devices0.readBurstLengthHist::4-7            0      0.00%      0.00% # Histogram of burst lengths of transmitted packets (Byte)
system.comm_monitor_dma_devices0.readBurstLengthHist::8-11            0      0.00%      0.00% # Histogram of burst lengths of transmitted packets (Byte)
system.comm_monitor_dma_devices0.readBurstLengthHist::12-15            0      0.00%      0.00% # Histogram of burst lengths of transmitted packets (Byte)
system.comm_monitor_dma_devices0.readBurstLengthHist::16-19            0      0.00%      0.00% # Histogram of burst lengths of transmitted packets (Byte)
system.comm_monitor_dma_devices0.readBurstLengthHist::20-23            0      0.00%      0.00% # Histogram of burst lengths of transmitted packets (Byte)
system.comm_monitor_dma_devices0.readBurstLengthHist::24-27            0      0.00%      0.00% # Histogram of burst lengths of transmitted packets (Byte)
system.comm_monitor_dma_devices0.readBurstLengthHist::28-31            0      0.00%      0.00% # Histogram of burst lengths of transmitted packets (Byte)
system.comm_monitor_dma_devices0.readBurstLengthHist::32-35            0      0.00%      0.00% # Histogram of burst lengths of transmitted packets (Byte)
system.comm_monitor_dma_devices0.readBurstLengthHist::36-39            0      0.00%      0.00% # Histogram of burst lengths of transmitted packets (Byte)
system.comm_monitor_dma_devices0.readBurstLengthHist::40-43            0      0.00%      0.00% # Histogram of burst lengths of transmitted packets (Byte)
system.comm_monitor_dma_devices0.readBurstLengthHist::44-47            0      0.00%      0.00% # Histogram of burst lengths of transmitted packets (Byte)
system.comm_monitor_dma_devices0.readBurstLengthHist::48-51            0      0.00%      0.00% # Histogram of burst lengths of transmitted packets (Byte)
system.comm_monitor_dma_devices0.readBurstLengthHist::52-55            0      0.00%      0.00% # Histogram of burst lengths of transmitted packets (Byte)
system.comm_monitor_dma_devices0.readBurstLengthHist::56-59            0      0.00%      0.00% # Histogram of burst lengths of transmitted packets (Byte)
system.comm_monitor_dma_devices0.readBurstLengthHist::60-63            0      0.00%      0.00% # Histogram of burst lengths of transmitted packets (Byte)
system.comm_monitor_dma_devices0.readBurstLengthHist::64-67         9000    100.00%    100.00% # Histogram of burst lengths of transmitted packets (Byte)
system.comm_monitor_dma_devices0.readBurstLengthHist::68-71            0      0.00%    100.00% # Histogram of burst lengths of transmitted packets (Byte)
system.comm_monitor_dma_devices0.readBurstLengthHist::72-75            0      0.00%    100.00% # Histogram of burst lengths of transmitted packets (Byte)
system.comm_monitor_dma_devices0.readBurstLengthHist::76-79            0      0.00%    100.00% # Histogram of burst lengths of transmitted packets (Byte)
system.comm_monitor_dma_devices0.readBurstLengthHist::total         9000                       # Histogram of burst lengths of transmitted packets (Byte)
system.comm_monitor_dma_devices0.writeBurstLengthHist::samples         1000                       # Histogram of burst lengths of transmitted packets (Byte)
system.comm_monitor_dma_devices0.writeBurstLengthHist::mean           64                       # Histogram of burst lengths of transmitted packets (Byte)
system.comm_monitor_dma_devices0.writeBurstLengthHist::gmean    64.000000                       # Histogram of burst lengths of transmitted packets (Byte)
system.comm_monitor_dma_devices0.writeBurstLengthHist::stdev            0                       # Histogram of burst lengths of transmitted packets (Byte)
system.comm_monitor_dma_devices0.writeBurstLengthHist::0-3            0      0.00%      0.00% # Histogram of burst lengths of transmitted packets (Byte)
system.comm_monitor_dma_devices0.writeBurstLengthHist::4-7            0      0.00%      0.00% # Histogram of burst lengths of transmitted packets (Byte)
system.comm_monitor_dma_devices0.writeBurstLengthHist::8-11            0      0.00%      0.00% # Histogram of burst lengths of transmitted packets (Byte)
system.comm_monitor_dma_devices0.writeBurstLengthHist::12-15            0      0.00%      0.00% # Histogram of burst lengths of transmitted packets (Byte)
system.comm_monitor_dma_devices0.writeBurstLengthHist::16-19            0      0.00%      0.00% # Histogram of burst lengths of transmitted packets (Byte)
system.comm_monitor_dma_devices0.writeBurstLengthHist::20-23            0      0.00%      0.00% # Histogram of burst lengths of transmitted packets (Byte)
system.comm_monitor_dma_devices0.writeBurstLengthHist::24-27            0      0.00%      0.00% # Histogram of burst lengths of transmitted packets (Byte)
system.comm_monitor_dma_devices0.writeBurstLengthHist::28-31            0      0.00%      0.00% # Histogram of burst lengths of transmitted packets (Byte)
system.comm_monitor_dma_devices0.writeBurstLengthHist::32-35            0      0.00%      0.00% # Histogram of burst lengths of transmitted packets (Byte)
system.comm_monitor_dma_devices0.writeBurstLengthHist::36-39            0      0.00%      0.00% # Histogram of burst lengths of transmitted packets (Byte)
system.comm_monitor_dma_devices0.writeBurstLengthHist::40-43            0      0.00%      0.00% # Histogram of burst lengths of transmitted packets (Byte)
system.comm_monitor_dma_devices0.writeBurstLengthHist::44-47            0      0.00%      0.00% # Histogram of burst lengths of transmitted packets (Byte)
system.comm_monitor_dma_devices0.writeBurstLengthHist::48-51            0      0.00%      0.00% # Histogram of burst lengths of transmitted packets (Byte)
system.comm_monitor_dma_devices0.writeBurstLengthHist::52-55            0      0.00%      0.00% # Histogram of burst lengths of transmitted packets (Byte)
system.comm_monitor_dma_devices0.writeBurstLengthHist::56-59            0      0.00%      0.00% # Histogram of burst lengths of transmitted packets (Byte)
system.comm_monitor_dma_devices0.writeBurstLengthHist::60-63            0      0.00%      0.00% # Histogram of burst lengths of transmitted packets (Byte)
system.comm_monitor_dma_devices0.writeBurstLengthHist::64-67         1000    100.00%    100.00% # Histogram of burst lengths of transmitted packets (Byte)
system.comm_monitor_dma_devices0.writeBurstLengthHist::68-71            0      0.00%    100.00% # Histogram of burst lengths of transmitted packets (Byte)
system.comm_monitor_dma_devices0.writeBurstLengthHist::72-75            0      0.00%    100.00% # Histogram of burst lengths of transmitted packets (Byte)
system.comm_monitor_dma_devices0.writeBurstLengthHist::76-79            0      0.00%    100.00% # Histogram of burst lengths of transmitted packets (Byte)
system.comm_monitor_dma_devices0.writeBurstLengthHist::total         1000                       # Histogram of burst lengths of transmitted packets (Byte)
system.comm_monitor_dma_devices0.readBandwidthHist::samples            0                       # Histogram of read bandwidth per sample period ((Byte/Second))
system.comm_monitor_dma_devices0.readBandwidthHist::mean          nan                       # Histogram of read bandwidth per sample period ((Byte/Second))
system.comm_monitor_dma_devices0.readBandwidthHist::gmean          nan                       # Histogram of read bandwidth per sample period ((Byte/Second))
system.comm_monitor_dma_devices0.readBandwidthHist::stdev          nan                       # Histogram of read bandwidth per sample period ((Byte/Second))
system.comm_monitor_dma_devices0.readBandwidthHist::0            0                       # Histogram of read bandwidth per sample period ((Byte/Second))
system.comm_monitor_dma_devices0.readBandwidthHist::1            0                       # Histogram of read bandwidth per sample period ((Byte/Second))
system.comm_monitor_dma_devices0.readBandwidthHist::2            0                       # Histogram of read bandwidth per sample period ((Byte/Second))
system.comm_monitor_dma_devices0.readBandwidthHist::3            0                       # Histogram of read bandwidth per sample period ((Byte/Second))
system.comm_monitor_dma_devices0.readBandwidthHist::4            0                       # Histogram of read bandwidth per sample period ((Byte/Second))
system.comm_monitor_dma_devices0.readBandwidthHist::5            0                       # Histogram of read bandwidth per sample period ((Byte/Second))
system.comm_monitor_dma_devices0.readBandwidthHist::6            0                       # Histogram of read bandwidth per sample period ((Byte/Second))
system.comm_monitor_dma_devices0.readBandwidthHist::7            0                       # Histogram of read bandwidth per sample period ((Byte/Second))
system.comm_monitor_dma_devices0.readBandwidthHist::8            0                       # Histogram of read bandwidth per sample period ((Byte/Second))
system.comm_monitor_dma_devices0.readBandwidthHist::9            0                       # Histogram of read bandwidth per sample period ((Byte/Second))
system.comm_monitor_dma_devices0.readBandwidthHist::10            0                       # Histogram of read bandwidth per sample period ((Byte/Second))
system.comm_monitor_dma_devices0.readBandwidthHist::11            0                       # Histogram of read bandwidth per sample period ((Byte/Second))
system.comm_monitor_dma_devices0.readBandwidthHist::12            0                       # Histogram of read bandwidth per sample period ((Byte/Second))
system.comm_monitor_dma_devices0.readBandwidthHist::13            0                       # Histogram of read bandwidth per sample period ((Byte/Second))
system.comm_monitor_dma_devices0.readBandwidthHist::14            0                       # Histogram of read bandwidth per sample period ((Byte/Second))
system.comm_monitor_dma_devices0.readBandwidthHist::15            0                       # Histogram of read bandwidth per sample period ((Byte/Second))
system.comm_monitor_dma_devices0.readBandwidthHist::16            0                       # Histogram of read bandwidth per sample period ((Byte/Second))
system.comm_monitor_dma_devices0.readBandwidthHist::17            0                       # Histogram of read bandwidth per sample period ((Byte/Second))
system.comm_monitor_dma_devices0.readBandwidthHist::18            0                       # Histogram of read bandwidth per sample period ((Byte/Second))
system.comm_monitor_dma_devices0.readBandwidthHist::19            0                       # Histogram of read bandwidth per sample period ((Byte/Second))
system.comm_monitor_dma_devices0.readBandwidthHist::total            0                       # Histogram of read bandwidth per sample period ((Byte/Second))
system.comm_monitor_dma_devices0.totalReadBytes       576000                       # Number of bytes read (Byte)
system.comm_monitor_dma_devices0.averageReadBandwidth   1152000000      0.00%      0.00% # Average read bandwidth ((Byte/Second))
system.comm_monitor_dma_devices0.writeBandwidthHist::samples            0                       # Histogram of write bandwidth ((Byte/Second))
system.comm_monitor_dma_devices0.writeBandwidthHist::mean          nan                       # Histogram of write bandwidth ((Byte/Second))
system.comm_monitor_dma_devices0.writeBandwidthHist::gmean          nan                       # Histogram of write bandwidth ((Byte/Second))
system.comm_monitor_dma_devices0.writeBandwidthHist::stdev          nan                       # Histogram of write bandwidth ((Byte/Second))
system.comm_monitor_dma_devices0.writeBandwidthHist::0            0                       # Histogram of write bandwidth ((Byte/Second))
system.comm_monitor_dma_devices0.writeBandwidthHist::1            0                       # Histogram of write bandwidth ((Byte/Second))
system.comm_monitor_dma_devices0.writeBandwidthHist::2            0                       # Histogram of write bandwidth ((Byte/Second))
system.comm_monitor_dma_devices0.writeBandwidthHist::3            0                       # Histogram of write bandwidth ((Byte/Second))
system.comm_monitor_dma_devices0.writeBandwidthHist::4            0                       # Histogram of write bandwidth ((Byte/Second))
system.comm_monitor_dma_devices0.writeBandwidthHist::5            0                       # Histogram of write bandwidth ((Byte/Second))
system.comm_monitor_dma_devices0.writeBandwidthHist::6            0                       # Histogram of write bandwidth ((Byte/Second))
system.comm_monitor_dma_devices0.writeBandwidthHist::7            0                       # Histogram of write bandwidth ((Byte/Second))
system.comm_monitor_dma_devices0.writeBandwidthHist::8            0                       # Histogram of write bandwidth ((Byte/Second))
system.comm_monitor_dma_devices0.writeBandwidthHist::9            0                       # Histogram of write bandwidth ((Byte/Second))
system.comm_monitor_dma_devices0.writeBandwidthHist::10            0                       # Histogram of write bandwidth ((Byte/Second))
system.comm_monitor_dma_devices0.writeBandwidthHist::11            0                       # Histogram of write bandwidth ((Byte/Second))
system.comm_monitor_dma_devices0.writeBandwidthHist::12            0                       # Histogram of write bandwidth ((Byte/Second))
system.comm_monitor_dma_devices0.writeBandwidthHist::13            0                       # Histogram of write bandwidth ((Byte/Second))
system.comm_monitor_dma_devices0.writeBandwidthHist::14            0                       # Histogram of write bandwidth ((Byte/Second))
system.comm_monitor_dma_devices0.writeBandwidthHist::15            0                       # Histogram of write bandwidth ((Byte/Second))
system.comm_monitor_dma_devices0.writeBandwidthHist::16            0                       # Histogram of write bandwidth ((Byte/Second))
system.comm_monitor_dma_devices0.writeBandwidthHist::17            0                       # Histogram of write bandwidth ((Byte/Second))
system.comm_monitor_dma_devices0.writeBandwidthHist::18            0                       # Histogram of write bandwidth ((Byte/Second))
system.comm_monitor_dma_devices0.writeBandwidthHist::19            0                       # Histogram of write bandwidth ((Byte/Second))
system.comm_monitor_dma_devices0.writeBandwidthHist::total            0                       # Histogram of write bandwidth ((Byte/Second))
system.comm_monitor_dma_devices0.totalWrittenBytes        64000                       # Number of bytes written ((Byte/Second))
system.comm_monitor_dma_devices0.averageWriteBandwidth    128000000      0.00%      0.00% # Average write bandwidth ((Byte/Second))
system.comm_monitor_dma_devices0.readLatencyHist::samples         9000                       # Read request-response latency (Tick)
system.comm_monitor_dma_devices0.readLatencyHist::mean 200539.024333                       # Read request-response latency (Tick)
system.comm_monitor_dma_devices0.readLatencyHist::gmean 193972.798841                       # Read request-response latency (Tick)
system.comm_monitor_dma_devices0.readLatencyHist::stdev 62896.725315                       # Read request-response latency (Tick)
system.comm_monitor_dma_devices0.readLatencyHist::0-32767            0      0.00%      0.00% # Read request-response latency (Tick)
system.comm_monitor_dma_devices0.readLatencyHist::32768-65535            0      0.00%      0.00% # Read request-response latency (Tick)
system.comm_monitor_dma_devices0.readLatencyHist::65536-98303            0      0.00%      0.00% # Read request-response latency (Tick)
system.comm_monitor_dma_devices0.readLatencyHist::98304-131071            0      0.00%      0.00% # Read request-response latency (Tick)
system.comm_monitor_dma_devices0.readLatencyHist::131072-163839         2510     27.89%     27.89% # Read request-response latency (Tick)
system.comm_monitor_dma_devices0.readLatencyHist::163840-196607         2583     28.70%     56.59% # Read request-response latency (Tick)
system.comm_monitor_dma_devices0.readLatencyHist::196608-229375         2950     32.78%     89.37% # Read request-response latency (Tick)
system.comm_monitor_dma_devices0.readLatencyHist::229376-262143          487      5.41%     94.78% # Read request-response latency (Tick)
system.comm_monitor_dma_devices0.readLatencyHist::262144-294911           11      0.12%     94.90% # Read request-response latency (Tick)
system.comm_monitor_dma_devices0.readLatencyHist::294912-327679           15      0.17%     95.07% # Read request-response latency (Tick)
system.comm_monitor_dma_devices0.readLatencyHist::327680-360447           37      0.41%     95.48% # Read request-response latency (Tick)
system.comm_monitor_dma_devices0.readLatencyHist::360448-393215           65      0.72%     96.20% # Read request-response latency (Tick)
system.comm_monitor_dma_devices0.readLatencyHist::393216-425983           67      0.74%     96.94% # Read request-response latency (Tick)
system.comm_monitor_dma_devices0.readLatencyHist::425984-458751          100      1.11%     98.06% # Read request-response latency (Tick)
system.comm_monitor_dma_devices0.readLatencyHist::458752-491519           73      0.81%     98.87% # Read request-response latency (Tick)
system.comm_monitor_dma_devices0.readLatencyHist::491520-524287           56      0.62%     99.49% # Read request-response latency (Tick)
system.comm_monitor_dma_devices0.readLatencyHist::524288-557055           44      0.49%     99.98% # Read request-response latency (Tick)
system.comm_monitor_dma_devices0.readLatencyHist::557056-589823            2      0.02%    100.00% # Read request-response latency (Tick)
system.comm_monitor_dma_devices0.readLatencyHist::589824-622591            0      0.00%    100.00% # Read request-response latency (Tick)
system.comm_monitor_dma_devices0.readLatencyHist::622592-655359            0      0.00%    100.00% # Read request-response latency (Tick)
system.comm_monitor_dma_devices0.readLatencyHist::total         9000                       # Read request-response latency (Tick)
system.comm_monitor_dma_devices0.writeLatencyHist::samples         1000                       # Write request-response latency (Tick)
system.comm_monitor_dma_devices0.writeLatencyHist::mean 51523.690000                       # Write request-response latency (Tick)
system.comm_monitor_dma_devices0.writeLatencyHist::gmean 51458.523772                       # Write request-response latency (Tick)
system.comm_monitor_dma_devices0.writeLatencyHist::stdev  2799.279770                       # Write request-response latency (Tick)
system.comm_monitor_dma_devices0.writeLatencyHist::0-8191            0      0.00%      0.00% # Write request-response latency (Tick)
system.comm_monitor_dma_devices0.writeLatencyHist::8192-16383            0      0.00%      0.00% # Write request-response latency (Tick)
system.comm_monitor_dma_devices0.writeLatencyHist::16384-24575            0      0.00%      0.00% # Write request-response latency (Tick)
system.comm_monitor_dma_devices0.writeLatencyHist::24576-32767            0      0.00%      0.00% # Write request-response latency (Tick)
system.comm_monitor_dma_devices0.writeLatencyHist::32768-40959            0      0.00%      0.00% # Write request-response latency (Tick)
system.comm_monitor_dma_devices0.writeLatencyHist::40960-49151           14      1.40%      1.40% # Write request-response latency (Tick)
system.comm_monitor_dma_devices0.writeLatencyHist::49152-57343          961     96.10%     97.50% # Write request-response latency (Tick)
system.comm_monitor_dma_devices0.writeLatencyHist::57344-65535           23      2.30%     99.80% # Write request-response latency (Tick)
system.comm_monitor_dma_devices0.writeLatencyHist::65536-73727            1      0.10%     99.90% # Write request-response latency (Tick)
system.comm_monitor_dma_devices0.writeLatencyHist::73728-81919            0      0.00%     99.90% # Write request-response latency (Tick)
system.comm_monitor_dma_devices0.writeLatencyHist::81920-90111            0      0.00%     99.90% # Write request-response latency (Tick)
system.comm_monitor_dma_devices0.writeLatencyHist::90112-98303            0      0.00%     99.90% # Write request-response latency (Tick)
system.comm_monitor_dma_devices0.writeLatencyHist::98304-106495            1      0.10%    100.00% # Write request-response latency (Tick)
system.comm_monitor_dma_devices0.writeLatencyHist::106496-114687            0      0.00%    100.00% # Write request-response latency (Tick)
system.comm_monitor_dma_devices0.writeLatencyHist::114688-122879            0      0.00%    100.00% # Write request-response latency (Tick)
system.comm_monitor_dma_devices0.writeLatencyHist::122880-131071            0      0.00%    100.00% # Write request-response latency (Tick)
system.comm_monitor_dma_devices0.writeLatencyHist::131072-139263            0      0.00%    100.00% # Write request-response latency (Tick)
system.comm_monitor_dma_devices0.writeLatencyHist::139264-147455            0      0.00%    100.00% # Write request-response latency (Tick)
system.comm_monitor_dma_devices0.writeLatencyHist::147456-155647            0      0.00%    100.00% # Write request-response latency (Tick)
system.comm_monitor_dma_devices0.writeLatencyHist::155648-163839            0      0.00%    100.00% # Write request-response latency (Tick)
system.comm_monitor_dma_devices0.writeLatencyHist::total         1000                       # Write request-response latency (Tick)
system.comm_monitor_dma_devices0.ittReadRead::samples         8998                       # Read-to-read inter transaction time (Tick)
system.comm_monitor_dma_devices0.ittReadRead::mean 12883.637253                       # Read-to-read inter transaction time (Tick)
system.comm_monitor_dma_devices0.ittReadRead::stdev 16169.206781                       # Read-to-read inter transaction time (Tick)
system.comm_monitor_dma_devices0.ittReadRead::underflows            0      0.00%      0.00% # Read-to-read inter transaction time (Tick)
system.comm_monitor_dma_devices0.ittReadRead::1-5000         1486     16.51%     16.51% # Read-to-read inter transaction time (Tick)
system.comm_monitor_dma_devices0.ittReadRead::5001-10000         3416     37.96%     54.48% # Read-to-read inter transaction time (Tick)
system.comm_monitor_dma_devices0.ittReadRead::10001-15000         1794     19.94%     74.42% # Read-to-read inter transaction time (Tick)
system.comm_monitor_dma_devices0.ittReadRead::15001-20000          972     10.80%     85.22% # Read-to-read inter transaction time (Tick)
system.comm_monitor_dma_devices0.ittReadRead::20001-25000          829      9.21%     94.43% # Read-to-read inter transaction time (Tick)
system.comm_monitor_dma_devices0.ittReadRead::25001-30000          293      3.26%     97.69% # Read-to-read inter transaction time (Tick)
system.comm_monitor_dma_devices0.ittReadRead::30001-35000          154      1.71%     99.40% # Read-to-read inter transaction time (Tick)
system.comm_monitor_dma_devices0.ittReadRead::35001-40000           13      0.14%     99.54% # Read-to-read inter transaction time (Tick)
system.comm_monitor_dma_devices0.ittReadRead::40001-45000            5      0.06%     99.60% # Read-to-read inter transaction time (Tick)
system.comm_monitor_dma_devices0.ittReadRead::45001-50000            2      0.02%     99.62% # Read-to-read inter transaction time (Tick)
system.comm_monitor_dma_devices0.ittReadRead::50001-55000            1      0.01%     99.63% # Read-to-read inter transaction time (Tick)
system.comm_monitor_dma_devices0.ittReadRead::55001-60000            0      0.00%     99.63% # Read-to-read inter transaction time (Tick)
system.comm_monitor_dma_devices0.ittReadRead::60001-65000            0      0.00%     99.63% # Read-to-read inter transaction time (Tick)
system.comm_monitor_dma_devices0.ittReadRead::65001-70000            0      0.00%     99.63% # Read-to-read inter transaction time (Tick)
system.comm_monitor_dma_devices0.ittReadRead::70001-75000            1      0.01%     99.64% # Read-to-read inter transaction time (Tick)
system.comm_monitor_dma_devices0.ittReadRead::75001-80000            2      0.02%     99.67% # Read-to-read inter transaction time (Tick)
system.comm_monitor_dma_devices0.ittReadRead::80001-85000            0      0.00%     99.67% # Read-to-read inter transaction time (Tick)
system.comm_monitor_dma_devices0.ittReadRead::85001-90000            0      0.00%     99.67% # Read-to-read inter transaction time (Tick)
system.comm_monitor_dma_devices0.ittReadRead::90001-95000            0      0.00%     99.67% # Read-to-read inter transaction time (Tick)
system.comm_monitor_dma_devices0.ittReadRead::95001-100000            1      0.01%     99.68% # Read-to-read inter transaction time (Tick)
system.comm_monitor_dma_devices0.ittReadRead::overflows           29      0.32%    100.00% # Read-to-read inter transaction time (Tick)
system.comm_monitor_dma_devices0.ittReadRead::min_value           30                       # Read-to-read inter transaction time (Tick)
system.comm_monitor_dma_devices0.ittReadRead::max_value       285000                       # Read-to-read inter transaction time (Tick)
system.comm_monitor_dma_devices0.ittReadRead::total         8998                       # Read-to-read inter transaction time (Tick)
system.comm_monitor_dma_devices0.ittWriteWrite::samples          999                       # Write-to-write inter transaction time (Tick)
system.comm_monitor_dma_devices0.ittWriteWrite::mean 116057.747748                       # Write-to-write inter transaction time (Tick)
system.comm_monitor_dma_devices0.ittWriteWrite::stdev 45866.700045                       # Write-to-write inter transaction time (Tick)
system.comm_monitor_dma_devices0.ittWriteWrite::underflows            0      0.00%      0.00% # Write-to-write inter transaction time (Tick)
system.comm_monitor_dma_devices0.ittWriteWrite::1-5000            0      0.00%      0.00% # Write-to-write inter transaction time (Tick)
system.comm_monitor_dma_devices0.ittWriteWrite::5001-10000            0      0.00%      0.00% # Write-to-write inter transaction time (Tick)
system.comm_monitor_dma_devices0.ittWriteWrite::10001-15000            0      0.00%      0.00% # Write-to-write inter transaction time (Tick)
system.comm_monitor_dma_devices0.ittWriteWrite::15001-20000            0      0.00%      0.00% # Write-to-write inter transaction time (Tick)
system.comm_monitor_dma_devices0.ittWriteWrite::20001-25000            0      0.00%      0.00% # Write-to-write inter transaction time (Tick)
system.comm_monitor_dma_devices0.ittWriteWrite::25001-30000            0      0.00%      0.00% # Write-to-write inter transaction time (Tick)
system.comm_monitor_dma_devices0.ittWriteWrite::30001-35000            0      0.00%      0.00% # Write-to-write inter transaction time (Tick)
system.comm_monitor_dma_devices0.ittWriteWrite::35001-40000            0      0.00%      0.00% # Write-to-write inter transaction time (Tick)
system.comm_monitor_dma_devices0.ittWriteWrite::40001-45000            0      0.00%      0.00% # Write-to-write inter transaction time (Tick)
system.comm_monitor_dma_devices0.ittWriteWrite::45001-50000            0      0.00%      0.00% # Write-to-write inter transaction time (Tick)
system.comm_monitor_dma_devices0.ittWriteWrite::50001-55000            0      0.00%      0.00% # Write-to-write inter transaction time (Tick)
system.comm_monitor_dma_devices0.ittWriteWrite::55001-60000            0      0.00%      0.00% # Write-to-write inter transaction time (Tick)
system.comm_monitor_dma_devices0.ittWriteWrite::60001-65000            3      0.30%      0.30% # Write-to-write inter transaction time (Tick)
system.comm_monitor_dma_devices0.ittWriteWrite::65001-70000            2      0.20%      0.50% # Write-to-write inter transaction time (Tick)
system.comm_monitor_dma_devices0.ittWriteWrite::70001-75000            6      0.60%      1.10% # Write-to-write inter transaction time (Tick)
system.comm_monitor_dma_devices0.ittWriteWrite::75001-80000            9      0.90%      2.00% # Write-to-write inter transaction time (Tick)
system.comm_monitor_dma_devices0.ittWriteWrite::80001-85000           11      1.10%      3.10% # Write-to-write inter transaction time (Tick)
system.comm_monitor_dma_devices0.ittWriteWrite::85001-90000           28      2.80%      5.91% # Write-to-write inter transaction time (Tick)
system.comm_monitor_dma_devices0.ittWriteWrite::90001-95000           43      4.30%     10.21% # Write-to-write inter transaction time (Tick)
system.comm_monitor_dma_devices0.ittWriteWrite::95001-100000           93      9.31%     19.52% # Write-to-write inter transaction time (Tick)
system.comm_monitor_dma_devices0.ittWriteWrite::overflows          804     80.48%    100.00% # Write-to-write inter transaction time (Tick)
system.comm_monitor_dma_devices0.ittWriteWrite::min_value        61000                       # Write-to-write inter transaction time (Tick)
system.comm_monitor_dma_devices0.ittWriteWrite::max_value       400000                       # Write-to-write inter transaction time (Tick)
system.comm_monitor_dma_devices0.ittWriteWrite::total          999                       # Write-to-write inter transaction time (Tick)
system.comm_monitor_dma_devices0.ittReqReq::samples         9998                       # Request-to-request inter transaction time (Tick)
system.comm_monitor_dma_devices0.ittReqReq::mean 11596.516103                       # Request-to-request inter transaction time (Tick)
system.comm_monitor_dma_devices0.ittReqReq::stdev 14914.950121                       # Request-to-request inter transaction time (Tick)
system.comm_monitor_dma_devices0.ittReqReq::underflows            0      0.00%      0.00% # Request-to-request inter transaction time (Tick)
system.comm_monitor_dma_devices0.ittReqReq::1-5000         1731     17.31%     17.31% # Request-to-request inter transaction time (Tick)
system.comm_monitor_dma_devices0.ittReqReq::5001-10000         4147     41.48%     58.79% # Request-to-request inter transaction time (Tick)
system.comm_monitor_dma_devices0.ittReqReq::10001-15000         2173     21.73%     80.53% # Request-to-request inter transaction time (Tick)
system.comm_monitor_dma_devices0.ittReqReq::15001-20000         1126     11.26%     91.79% # Request-to-request inter transaction time (Tick)
system.comm_monitor_dma_devices0.ittReqReq::20001-25000          653      6.53%     98.32% # Request-to-request inter transaction time (Tick)
system.comm_monitor_dma_devices0.ittReqReq::25001-30000           92      0.92%     99.24% # Request-to-request inter transaction time (Tick)
system.comm_monitor_dma_devices0.ittReqReq::30001-35000           37      0.37%     99.61% # Request-to-request inter transaction time (Tick)
system.comm_monitor_dma_devices0.ittReqReq::35001-40000            3      0.03%     99.64% # Request-to-request inter transaction time (Tick)
system.comm_monitor_dma_devices0.ittReqReq::40001-45000            1      0.01%     99.65% # Request-to-request inter transaction time (Tick)
system.comm_monitor_dma_devices0.ittReqReq::45001-50000            4      0.04%     99.69% # Request-to-request inter transaction time (Tick)
system.comm_monitor_dma_devices0.ittReqReq::50001-55000            1      0.01%     99.70% # Request-to-request inter transaction time (Tick)
system.comm_monitor_dma_devices0.ittReqReq::55001-60000            0      0.00%     99.70% # Request-to-request inter transaction time (Tick)
system.comm_monitor_dma_devices0.ittReqReq::60001-65000            0      0.00%     99.70% # Request-to-request inter transaction time (Tick)
system.comm_monitor_dma_devices0.ittReqReq::65001-70000            0      0.00%     99.70% # Request-to-request inter transaction time (Tick)
system.comm_monitor_dma_devices0.ittReqReq::70001-75000            0      0.00%     99.70% # Request-to-request inter transaction time (Tick)
system.comm_monitor_dma_devices0.ittReqReq::75001-80000            0      0.00%     99.70% # Request-to-request inter transaction time (Tick)
system.comm_monitor_dma_devices0.ittReqReq::80001-85000            0      0.00%     99.70% # Request-to-request inter transaction time (Tick)
system.comm_monitor_dma_devices0.ittReqReq::85001-90000            0      0.00%     99.70% # Request-to-request inter transaction time (Tick)
system.comm_monitor_dma_devices0.ittReqReq::90001-95000            0      0.00%     99.70% # Request-to-request inter transaction time (Tick)
system.comm_monitor_dma_devices0.ittReqReq::95001-100000            1      0.01%     99.71% # Request-to-request inter transaction time (Tick)
system.comm_monitor_dma_devices0.ittReqReq::overflows           29      0.29%    100.00% # Request-to-request inter transaction time (Tick)
system.comm_monitor_dma_devices0.ittReqReq::min_value           30                       # Request-to-request inter transaction time (Tick)
system.comm_monitor_dma_devices0.ittReqReq::max_value       285000                       # Request-to-request inter transaction time (Tick)
system.comm_monitor_dma_devices0.ittReqReq::total         9998                       # Request-to-request inter transaction time (Tick)
system.comm_monitor_dma_devices0.outstandingReadsHist::samples            0                       # Outstanding read transactions (Count)
system.comm_monitor_dma_devices0.outstandingReadsHist::mean          nan                       # Outstanding read transactions (Count)
system.comm_monitor_dma_devices0.outstandingReadsHist::gmean          nan                       # Outstanding read transactions (Count)
system.comm_monitor_dma_devices0.outstandingReadsHist::stdev          nan                       # Outstanding read transactions (Count)
system.comm_monitor_dma_devices0.outstandingReadsHist::0            0                       # Outstanding read transactions (Count)
system.comm_monitor_dma_devices0.outstandingReadsHist::1            0                       # Outstanding read transactions (Count)
system.comm_monitor_dma_devices0.outstandingReadsHist::2            0                       # Outstanding read transactions (Count)
system.comm_monitor_dma_devices0.outstandingReadsHist::3            0                       # Outstanding read transactions (Count)
system.comm_monitor_dma_devices0.outstandingReadsHist::4            0                       # Outstanding read transactions (Count)
system.comm_monitor_dma_devices0.outstandingReadsHist::5            0                       # Outstanding read transactions (Count)
system.comm_monitor_dma_devices0.outstandingReadsHist::6            0                       # Outstanding read transactions (Count)
system.comm_monitor_dma_devices0.outstandingReadsHist::7            0                       # Outstanding read transactions (Count)
system.comm_monitor_dma_devices0.outstandingReadsHist::8            0                       # Outstanding read transactions (Count)
system.comm_monitor_dma_devices0.outstandingReadsHist::9            0                       # Outstanding read transactions (Count)
system.comm_monitor_dma_devices0.outstandingReadsHist::10            0                       # Outstanding read transactions (Count)
system.comm_monitor_dma_devices0.outstandingReadsHist::11            0                       # Outstanding read transactions (Count)
system.comm_monitor_dma_devices0.outstandingReadsHist::12            0                       # Outstanding read transactions (Count)
system.comm_monitor_dma_devices0.outstandingReadsHist::13            0                       # Outstanding read transactions (Count)
system.comm_monitor_dma_devices0.outstandingReadsHist::14            0                       # Outstanding read transactions (Count)
system.comm_monitor_dma_devices0.outstandingReadsHist::15            0                       # Outstanding read transactions (Count)
system.comm_monitor_dma_devices0.outstandingReadsHist::16            0                       # Outstanding read transactions (Count)
system.comm_monitor_dma_devices0.outstandingReadsHist::17            0                       # Outstanding read transactions (Count)
system.comm_monitor_dma_devices0.outstandingReadsHist::18            0                       # Outstanding read transactions (Count)
system.comm_monitor_dma_devices0.outstandingReadsHist::19            0                       # Outstanding read transactions (Count)
system.comm_monitor_dma_devices0.outstandingReadsHist::total            0                       # Outstanding read transactions (Count)
system.comm_monitor_dma_devices0.outstandingWritesHist::samples            0                       # Outstanding write transactions (Count)
system.comm_monitor_dma_devices0.outstandingWritesHist::mean          nan                       # Outstanding write transactions (Count)
system.comm_monitor_dma_devices0.outstandingWritesHist::gmean          nan                       # Outstanding write transactions (Count)
system.comm_monitor_dma_devices0.outstandingWritesHist::stdev          nan                       # Outstanding write transactions (Count)
system.comm_monitor_dma_devices0.outstandingWritesHist::0            0                       # Outstanding write transactions (Count)
system.comm_monitor_dma_devices0.outstandingWritesHist::1            0                       # Outstanding write transactions (Count)
system.comm_monitor_dma_devices0.outstandingWritesHist::2            0                       # Outstanding write transactions (Count)
system.comm_monitor_dma_devices0.outstandingWritesHist::3            0                       # Outstanding write transactions (Count)
system.comm_monitor_dma_devices0.outstandingWritesHist::4            0                       # Outstanding write transactions (Count)
system.comm_monitor_dma_devices0.outstandingWritesHist::5            0                       # Outstanding write transactions (Count)
system.comm_monitor_dma_devices0.outstandingWritesHist::6            0                       # Outstanding write transactions (Count)
system.comm_monitor_dma_devices0.outstandingWritesHist::7            0                       # Outstanding write transactions (Count)
system.comm_monitor_dma_devices0.outstandingWritesHist::8            0                       # Outstanding write transactions (Count)
system.comm_monitor_dma_devices0.outstandingWritesHist::9            0                       # Outstanding write transactions (Count)
system.comm_monitor_dma_devices0.outstandingWritesHist::10            0                       # Outstanding write transactions (Count)
system.comm_monitor_dma_devices0.outstandingWritesHist::11            0                       # Outstanding write transactions (Count)
system.comm_monitor_dma_devices0.outstandingWritesHist::12            0                       # Outstanding write transactions (Count)
system.comm_monitor_dma_devices0.outstandingWritesHist::13            0                       # Outstanding write transactions (Count)
system.comm_monitor_dma_devices0.outstandingWritesHist::14            0                       # Outstanding write transactions (Count)
system.comm_monitor_dma_devices0.outstandingWritesHist::15            0                       # Outstanding write transactions (Count)
system.comm_monitor_dma_devices0.outstandingWritesHist::16            0                       # Outstanding write transactions (Count)
system.comm_monitor_dma_devices0.outstandingWritesHist::17            0                       # Outstanding write transactions (Count)
system.comm_monitor_dma_devices0.outstandingWritesHist::18            0                       # Outstanding write transactions (Count)
system.comm_monitor_dma_devices0.outstandingWritesHist::19            0                       # Outstanding write transactions (Count)
system.comm_monitor_dma_devices0.outstandingWritesHist::total            0                       # Outstanding write transactions (Count)
system.comm_monitor_dma_devices0.readTransHist::samples            0                       # Histogram of read transactions per sample period (Count)
system.comm_monitor_dma_devices0.readTransHist::mean          nan                       # Histogram of read transactions per sample period (Count)
system.comm_monitor_dma_devices0.readTransHist::gmean          nan                       # Histogram of read transactions per sample period (Count)
system.comm_monitor_dma_devices0.readTransHist::stdev          nan                       # Histogram of read transactions per sample period (Count)
system.comm_monitor_dma_devices0.readTransHist::0            0                       # Histogram of read transactions per sample period (Count)
system.comm_monitor_dma_devices0.readTransHist::1            0                       # Histogram of read transactions per sample period (Count)
system.comm_monitor_dma_devices0.readTransHist::2            0                       # Histogram of read transactions per sample period (Count)
system.comm_monitor_dma_devices0.readTransHist::3            0                       # Histogram of read transactions per sample period (Count)
system.comm_monitor_dma_devices0.readTransHist::4            0                       # Histogram of read transactions per sample period (Count)
system.comm_monitor_dma_devices0.readTransHist::5            0                       # Histogram of read transactions per sample period (Count)
system.comm_monitor_dma_devices0.readTransHist::6            0                       # Histogram of read transactions per sample period (Count)
system.comm_monitor_dma_devices0.readTransHist::7            0                       # Histogram of read transactions per sample period (Count)
system.comm_monitor_dma_devices0.readTransHist::8            0                       # Histogram of read transactions per sample period (Count)
system.comm_monitor_dma_devices0.readTransHist::9            0                       # Histogram of read transactions per sample period (Count)
system.comm_monitor_dma_devices0.readTransHist::10            0                       # Histogram of read transactions per sample period (Count)
system.comm_monitor_dma_devices0.readTransHist::11            0                       # Histogram of read transactions per sample period (Count)
system.comm_monitor_dma_devices0.readTransHist::12            0                       # Histogram of read transactions per sample period (Count)
system.comm_monitor_dma_devices0.readTransHist::13            0                       # Histogram of read transactions per sample period (Count)
system.comm_monitor_dma_devices0.readTransHist::14            0                       # Histogram of read transactions per sample period (Count)
system.comm_monitor_dma_devices0.readTransHist::15            0                       # Histogram of read transactions per sample period (Count)
system.comm_monitor_dma_devices0.readTransHist::16            0                       # Histogram of read transactions per sample period (Count)
system.comm_monitor_dma_devices0.readTransHist::17            0                       # Histogram of read transactions per sample period (Count)
system.comm_monitor_dma_devices0.readTransHist::18            0                       # Histogram of read transactions per sample period (Count)
system.comm_monitor_dma_devices0.readTransHist::19            0                       # Histogram of read transactions per sample period (Count)
system.comm_monitor_dma_devices0.readTransHist::total            0                       # Histogram of read transactions per sample period (Count)
system.comm_monitor_dma_devices0.writeTransHist::samples            0                       # Histogram of write transactions per sample period (Count)
system.comm_monitor_dma_devices0.writeTransHist::mean          nan                       # Histogram of write transactions per sample period (Count)
system.comm_monitor_dma_devices0.writeTransHist::gmean          nan                       # Histogram of write transactions per sample period (Count)
system.comm_monitor_dma_devices0.writeTransHist::stdev          nan                       # Histogram of write transactions per sample period (Count)
system.comm_monitor_dma_devices0.writeTransHist::0            0                       # Histogram of write transactions per sample period (Count)
system.comm_monitor_dma_devices0.writeTransHist::1            0                       # Histogram of write transactions per sample period (Count)
system.comm_monitor_dma_devices0.writeTransHist::2            0                       # Histogram of write transactions per sample period (Count)
system.comm_monitor_dma_devices0.writeTransHist::3            0                       # Histogram of write transactions per sample period (Count)
system.comm_monitor_dma_devices0.writeTransHist::4            0                       # Histogram of write transactions per sample period (Count)
system.comm_monitor_dma_devices0.writeTransHist::5            0                       # Histogram of write transactions per sample period (Count)
system.comm_monitor_dma_devices0.writeTransHist::6            0                       # Histogram of write transactions per sample period (Count)
system.comm_monitor_dma_devices0.writeTransHist::7            0                       # Histogram of write transactions per sample period (Count)
system.comm_monitor_dma_devices0.writeTransHist::8            0                       # Histogram of write transactions per sample period (Count)
system.comm_monitor_dma_devices0.writeTransHist::9            0                       # Histogram of write transactions per sample period (Count)
system.comm_monitor_dma_devices0.writeTransHist::10            0                       # Histogram of write transactions per sample period (Count)
system.comm_monitor_dma_devices0.writeTransHist::11            0                       # Histogram of write transactions per sample period (Count)
system.comm_monitor_dma_devices0.writeTransHist::12            0                       # Histogram of write transactions per sample period (Count)
system.comm_monitor_dma_devices0.writeTransHist::13            0                       # Histogram of write transactions per sample period (Count)
system.comm_monitor_dma_devices0.writeTransHist::14            0                       # Histogram of write transactions per sample period (Count)
system.comm_monitor_dma_devices0.writeTransHist::15            0                       # Histogram of write transactions per sample period (Count)
system.comm_monitor_dma_devices0.writeTransHist::16            0                       # Histogram of write transactions per sample period (Count)
system.comm_monitor_dma_devices0.writeTransHist::17            0                       # Histogram of write transactions per sample period (Count)
system.comm_monitor_dma_devices0.writeTransHist::18            0                       # Histogram of write transactions per sample period (Count)
system.comm_monitor_dma_devices0.writeTransHist::19            0                       # Histogram of write transactions per sample period (Count)
system.comm_monitor_dma_devices0.writeTransHist::total            0                       # Histogram of write transactions per sample period (Count)
system.comm_monitor_dma_devices1.readBurstLengthHist::samples            0                       # Histogram of burst lengths of transmitted packets (Byte)
system.comm_monitor_dma_devices1.readBurstLengthHist::mean          nan                       # Histogram of burst lengths of transmitted packets (Byte)
system.comm_monitor_dma_devices1.readBurstLengthHist::gmean          nan                       # Histogram of burst lengths of transmitted packets (Byte)
system.comm_monitor_dma_devices1.readBurstLengthHist::stdev          nan                       # Histogram of burst lengths of transmitted packets (Byte)
system.comm_monitor_dma_devices1.readBurstLengthHist::0            0                       # Histogram of burst lengths of transmitted packets (Byte)
system.comm_monitor_dma_devices1.readBurstLengthHist::1            0                       # Histogram of burst lengths of transmitted packets (Byte)
system.comm_monitor_dma_devices1.readBurstLengthHist::2            0                       # Histogram of burst lengths of transmitted packets (Byte)
system.comm_monitor_dma_devices1.readBurstLengthHist::3            0                       # Histogram of burst lengths of transmitted packets (Byte)
system.comm_monitor_dma_devices1.readBurstLengthHist::4            0                       # Histogram of burst lengths of transmitted packets (Byte)
system.comm_monitor_dma_devices1.readBurstLengthHist::5            0                       # Histogram of burst lengths of transmitted packets (Byte)
system.comm_monitor_dma_devices1.readBurstLengthHist::6            0                       # Histogram of burst lengths of transmitted packets (Byte)
system.comm_monitor_dma_devices1.readBurstLengthHist::7            0                       # Histogram of burst lengths of transmitted packets (Byte)
system.comm_monitor_dma_devices1.readBurstLengthHist::8            0                       # Histogram of burst lengths of transmitted packets (Byte)
system.comm_monitor_dma_devices1.readBurstLengthHist::9            0                       # Histogram of burst lengths of transmitted packets (Byte)
system.comm_monitor_dma_devices1.readBurstLengthHist::10            0                       # Histogram of burst lengths of transmitted packets (Byte)
system.comm_monitor_dma_devices1.readBurstLengthHist::11            0                       # Histogram of burst lengths of transmitted packets (Byte)
system.comm_monitor_dma_devices1.readBurstLengthHist::12            0                       # Histogram of burst lengths of transmitted packets (Byte)
system.comm_monitor_dma_devices1.readBurstLengthHist::13            0                       # Histogram of burst lengths of transmitted packets (Byte)
system.comm_monitor_dma_devices1.readBurstLengthHist::14            0                       # Histogram of burst lengths of transmitted packets (Byte)
system.comm_monitor_dma_devices1.readBurstLengthHist::15            0                       # Histogram of burst lengths of transmitted packets (Byte)
system.comm_monitor_dma_devices1.readBurstLengthHist::16            0                       # Histogram of burst lengths of transmitted packets (Byte)
system.comm_monitor_dma_devices1.readBurstLengthHist::17            0                       # Histogram of burst lengths of transmitted packets (Byte)
system.comm_monitor_dma_devices1.readBurstLengthHist::18            0                       # Histogram of burst lengths of transmitted packets (Byte)
system.comm_monitor_dma_devices1.readBurstLengthHist::19            0                       # Histogram of burst lengths of transmitted packets (Byte)
system.comm_monitor_dma_devices1.readBurstLengthHist::total            0                       # Histogram of burst lengths of transmitted packets (Byte)
system.comm_monitor_dma_devices1.writeBurstLengthHist::samples            0                       # Histogram of burst lengths of transmitted packets (Byte)
system.comm_monitor_dma_devices1.writeBurstLengthHist::mean          nan                       # Histogram of burst lengths of transmitted packets (Byte)
system.comm_monitor_dma_devices1.writeBurstLengthHist::gmean          nan                       # Histogram of burst lengths of transmitted packets (Byte)
system.comm_monitor_dma_devices1.writeBurstLengthHist::stdev          nan                       # Histogram of burst lengths of transmitted packets (Byte)
system.comm_monitor_dma_devices1.writeBurstLengthHist::0            0                       # Histogram of burst lengths of transmitted packets (Byte)
system.comm_monitor_dma_devices1.writeBurstLengthHist::1            0                       # Histogram of burst lengths of transmitted packets (Byte)
system.comm_monitor_dma_devices1.writeBurstLengthHist::2            0                       # Histogram of burst lengths of transmitted packets (Byte)
system.comm_monitor_dma_devices1.writeBurstLengthHist::3            0                       # Histogram of burst lengths of transmitted packets (Byte)
system.comm_monitor_dma_devices1.writeBurstLengthHist::4            0                       # Histogram of burst lengths of transmitted packets (Byte)
system.comm_monitor_dma_devices1.writeBurstLengthHist::5            0                       # Histogram of burst lengths of transmitted packets (Byte)
system.comm_monitor_dma_devices1.writeBurstLengthHist::6            0                       # Histogram of burst lengths of transmitted packets (Byte)
system.comm_monitor_dma_devices1.writeBurstLengthHist::7            0                       # Histogram of burst lengths of transmitted packets (Byte)
system.comm_monitor_dma_devices1.writeBurstLengthHist::8            0                       # Histogram of burst lengths of transmitted packets (Byte)
system.comm_monitor_dma_devices1.writeBurstLengthHist::9            0                       # Histogram of burst lengths of transmitted packets (Byte)
system.comm_monitor_dma_devices1.writeBurstLengthHist::10            0                       # Histogram of burst lengths of transmitted packets (Byte)
system.comm_monitor_dma_devices1.writeBurstLengthHist::11            0                       # Histogram of burst lengths of transmitted packets (Byte)
system.comm_monitor_dma_devices1.writeBurstLengthHist::12            0                       # Histogram of burst lengths of transmitted packets (Byte)
system.comm_monitor_dma_devices1.writeBurstLengthHist::13            0                       # Histogram of burst lengths of transmitted packets (Byte)
system.comm_monitor_dma_devices1.writeBurstLengthHist::14            0                       # Histogram of burst lengths of transmitted packets (Byte)
system.comm_monitor_dma_devices1.writeBurstLengthHist::15            0                       # Histogram of burst lengths of transmitted packets (Byte)
system.comm_monitor_dma_devices1.writeBurstLengthHist::16            0                       # Histogram of burst lengths of transmitted packets (Byte)
system.comm_monitor_dma_devices1.writeBurstLengthHist::17            0                       # Histogram of burst lengths of transmitted packets (Byte)
system.comm_monitor_dma_devices1.writeBurstLengthHist::18            0                       # Histogram of burst lengths of transmitted packets (Byte)
system.comm_monitor_dma_devices1.writeBurstLengthHist::19            0                       # Histogram of burst lengths of transmitted packets (Byte)
system.comm_monitor_dma_devices1.writeBurstLengthHist::total            0                       # Histogram of burst lengths of transmitted packets (Byte)
system.comm_monitor_dma_devices1.readBandwidthHist::samples            0                       # Histogram of read bandwidth per sample period ((Byte/Second))
system.comm_monitor_dma_devices1.readBandwidthHist::mean          nan                       # Histogram of read bandwidth per sample period ((Byte/Second))
system.comm_monitor_dma_devices1.readBandwidthHist::gmean          nan                       # Histogram of read bandwidth per sample period ((Byte/Second))
system.comm_monitor_dma_devices1.readBandwidthHist::stdev          nan                       # Histogram of read bandwidth per sample period ((Byte/Second))
system.comm_monitor_dma_devices1.readBandwidthHist::0            0                       # Histogram of read bandwidth per sample period ((Byte/Second))
system.comm_monitor_dma_devices1.readBandwidthHist::1            0                       # Histogram of read bandwidth per sample period ((Byte/Second))
system.comm_monitor_dma_devices1.readBandwidthHist::2            0                       # Histogram of read bandwidth per sample period ((Byte/Second))
system.comm_monitor_dma_devices1.readBandwidthHist::3            0                       # Histogram of read bandwidth per sample period ((Byte/Second))
system.comm_monitor_dma_devices1.readBandwidthHist::4            0                       # Histogram of read bandwidth per sample period ((Byte/Second))
system.comm_monitor_dma_devices1.readBandwidthHist::5            0                       # Histogram of read bandwidth per sample period ((Byte/Second))
system.comm_monitor_dma_devices1.readBandwidthHist::6            0                       # Histogram of read bandwidth per sample period ((Byte/Second))
system.comm_monitor_dma_devices1.readBandwidthHist::7            0                       # Histogram of read bandwidth per sample period ((Byte/Second))
system.comm_monitor_dma_devices1.readBandwidthHist::8            0                       # Histogram of read bandwidth per sample period ((Byte/Second))
system.comm_monitor_dma_devices1.readBandwidthHist::9            0                       # Histogram of read bandwidth per sample period ((Byte/Second))
system.comm_monitor_dma_devices1.readBandwidthHist::10            0                       # Histogram of read bandwidth per sample period ((Byte/Second))
system.comm_monitor_dma_devices1.readBandwidthHist::11            0                       # Histogram of read bandwidth per sample period ((Byte/Second))
system.comm_monitor_dma_devices1.readBandwidthHist::12            0                       # Histogram of read bandwidth per sample period ((Byte/Second))
system.comm_monitor_dma_devices1.readBandwidthHist::13            0                       # Histogram of read bandwidth per sample period ((Byte/Second))
system.comm_monitor_dma_devices1.readBandwidthHist::14            0                       # Histogram of read bandwidth per sample period ((Byte/Second))
system.comm_monitor_dma_devices1.readBandwidthHist::15            0                       # Histogram of read bandwidth per sample period ((Byte/Second))
system.comm_monitor_dma_devices1.readBandwidthHist::16            0                       # Histogram of read bandwidth per sample period ((Byte/Second))
system.comm_monitor_dma_devices1.readBandwidthHist::17            0                       # Histogram of read bandwidth per sample period ((Byte/Second))
system.comm_monitor_dma_devices1.readBandwidthHist::18            0                       # Histogram of read bandwidth per sample period ((Byte/Second))
system.comm_monitor_dma_devices1.readBandwidthHist::19            0                       # Histogram of read bandwidth per sample period ((Byte/Second))
system.comm_monitor_dma_devices1.readBandwidthHist::total            0                       # Histogram of read bandwidth per sample period ((Byte/Second))
system.comm_monitor_dma_devices1.totalReadBytes            0                       # Number of bytes read (Byte)
system.comm_monitor_dma_devices1.averageReadBandwidth            0                       # Average read bandwidth ((Byte/Second))
system.comm_monitor_dma_devices1.writeBandwidthHist::samples            0                       # Histogram of write bandwidth ((Byte/Second))
system.comm_monitor_dma_devices1.writeBandwidthHist::mean          nan                       # Histogram of write bandwidth ((Byte/Second))
system.comm_monitor_dma_devices1.writeBandwidthHist::gmean          nan                       # Histogram of write bandwidth ((Byte/Second))
system.comm_monitor_dma_devices1.writeBandwidthHist::stdev          nan                       # Histogram of write bandwidth ((Byte/Second))
system.comm_monitor_dma_devices1.writeBandwidthHist::0            0                       # Histogram of write bandwidth ((Byte/Second))
system.comm_monitor_dma_devices1.writeBandwidthHist::1            0                       # Histogram of write bandwidth ((Byte/Second))
system.comm_monitor_dma_devices1.writeBandwidthHist::2            0                       # Histogram of write bandwidth ((Byte/Second))
system.comm_monitor_dma_devices1.writeBandwidthHist::3            0                       # Histogram of write bandwidth ((Byte/Second))
system.comm_monitor_dma_devices1.writeBandwidthHist::4            0                       # Histogram of write bandwidth ((Byte/Second))
system.comm_monitor_dma_devices1.writeBandwidthHist::5            0                       # Histogram of write bandwidth ((Byte/Second))
system.comm_monitor_dma_devices1.writeBandwidthHist::6            0                       # Histogram of write bandwidth ((Byte/Second))
system.comm_monitor_dma_devices1.writeBandwidthHist::7            0                       # Histogram of write bandwidth ((Byte/Second))
system.comm_monitor_dma_devices1.writeBandwidthHist::8            0                       # Histogram of write bandwidth ((Byte/Second))
system.comm_monitor_dma_devices1.writeBandwidthHist::9            0                       # Histogram of write bandwidth ((Byte/Second))
system.comm_monitor_dma_devices1.writeBandwidthHist::10            0                       # Histogram of write bandwidth ((Byte/Second))
system.comm_monitor_dma_devices1.writeBandwidthHist::11            0                       # Histogram of write bandwidth ((Byte/Second))
system.comm_monitor_dma_devices1.writeBandwidthHist::12            0                       # Histogram of write bandwidth ((Byte/Second))
system.comm_monitor_dma_devices1.writeBandwidthHist::13            0                       # Histogram of write bandwidth ((Byte/Second))
system.comm_monitor_dma_devices1.writeBandwidthHist::14            0                       # Histogram of write bandwidth ((Byte/Second))
system.comm_monitor_dma_devices1.writeBandwidthHist::15            0                       # Histogram of write bandwidth ((Byte/Second))
system.comm_monitor_dma_devices1.writeBandwidthHist::16            0                       # Histogram of write bandwidth ((Byte/Second))
system.comm_monitor_dma_devices1.writeBandwidthHist::17            0                       # Histogram of write bandwidth ((Byte/Second))
system.comm_monitor_dma_devices1.writeBandwidthHist::18            0                       # Histogram of write bandwidth ((Byte/Second))
system.comm_monitor_dma_devices1.writeBandwidthHist::19            0                       # Histogram of write bandwidth ((Byte/Second))
system.comm_monitor_dma_devices1.writeBandwidthHist::total            0                       # Histogram of write bandwidth ((Byte/Second))
system.comm_monitor_dma_devices1.totalWrittenBytes            0                       # Number of bytes written ((Byte/Second))
system.comm_monitor_dma_devices1.averageWriteBandwidth            0                       # Average write bandwidth ((Byte/Second))
system.comm_monitor_dma_devices1.readLatencyHist::samples            0                       # Read request-response latency (Tick)
system.comm_monitor_dma_devices1.readLatencyHist::mean          nan                       # Read request-response latency (Tick)
system.comm_monitor_dma_devices1.readLatencyHist::gmean          nan                       # Read request-response latency (Tick)
system.comm_monitor_dma_devices1.readLatencyHist::stdev          nan                       # Read request-response latency (Tick)
system.comm_monitor_dma_devices1.readLatencyHist::0            0                       # Read request-response latency (Tick)
system.comm_monitor_dma_devices1.readLatencyHist::1            0                       # Read request-response latency (Tick)
system.comm_monitor_dma_devices1.readLatencyHist::2            0                       # Read request-response latency (Tick)
system.comm_monitor_dma_devices1.readLatencyHist::3            0                       # Read request-response latency (Tick)
system.comm_monitor_dma_devices1.readLatencyHist::4            0                       # Read request-response latency (Tick)
system.comm_monitor_dma_devices1.readLatencyHist::5            0                       # Read request-response latency (Tick)
system.comm_monitor_dma_devices1.readLatencyHist::6            0                       # Read request-response latency (Tick)
system.comm_monitor_dma_devices1.readLatencyHist::7            0                       # Read request-response latency (Tick)
system.comm_monitor_dma_devices1.readLatencyHist::8            0                       # Read request-response latency (Tick)
system.comm_monitor_dma_devices1.readLatencyHist::9            0                       # Read request-response latency (Tick)
system.comm_monitor_dma_devices1.readLatencyHist::10            0                       # Read request-response latency (Tick)
system.comm_monitor_dma_devices1.readLatencyHist::11            0                       # Read request-response latency (Tick)
system.comm_monitor_dma_devices1.readLatencyHist::12            0                       # Read request-response latency (Tick)
system.comm_monitor_dma_devices1.readLatencyHist::13            0                       # Read request-response latency (Tick)
system.comm_monitor_dma_devices1.readLatencyHist::14            0                       # Read request-response latency (Tick)
system.comm_monitor_dma_devices1.readLatencyHist::15            0                       # Read request-response latency (Tick)
system.comm_monitor_dma_devices1.readLatencyHist::16            0                       # Read request-response latency (Tick)
system.comm_monitor_dma_devices1.readLatencyHist::17            0                       # Read request-response latency (Tick)
system.comm_monitor_dma_devices1.readLatencyHist::18            0                       # Read request-response latency (Tick)
system.comm_monitor_dma_devices1.readLatencyHist::19            0                       # Read request-response latency (Tick)
system.comm_monitor_dma_devices1.readLatencyHist::total            0                       # Read request-response latency (Tick)
system.comm_monitor_dma_devices1.writeLatencyHist::samples            0                       # Write request-response latency (Tick)
system.comm_monitor_dma_devices1.writeLatencyHist::mean          nan                       # Write request-response latency (Tick)
system.comm_monitor_dma_devices1.writeLatencyHist::gmean          nan                       # Write request-response latency (Tick)
system.comm_monitor_dma_devices1.writeLatencyHist::stdev          nan                       # Write request-response latency (Tick)
system.comm_monitor_dma_devices1.writeLatencyHist::0            0                       # Write request-response latency (Tick)
system.comm_monitor_dma_devices1.writeLatencyHist::1            0                       # Write request-response latency (Tick)
system.comm_monitor_dma_devices1.writeLatencyHist::2            0                       # Write request-response latency (Tick)
system.comm_monitor_dma_devices1.writeLatencyHist::3            0                       # Write request-response latency (Tick)
system.comm_monitor_dma_devices1.writeLatencyHist::4            0                       # Write request-response latency (Tick)
system.comm_monitor_dma_devices1.writeLatencyHist::5            0                       # Write request-response latency (Tick)
system.comm_monitor_dma_devices1.writeLatencyHist::6            0                       # Write request-response latency (Tick)
system.comm_monitor_dma_devices1.writeLatencyHist::7            0                       # Write request-response latency (Tick)
system.comm_monitor_dma_devices1.writeLatencyHist::8            0                       # Write request-response latency (Tick)
system.comm_monitor_dma_devices1.writeLatencyHist::9            0                       # Write request-response latency (Tick)
system.comm_monitor_dma_devices1.writeLatencyHist::10            0                       # Write request-response latency (Tick)
system.comm_monitor_dma_devices1.writeLatencyHist::11            0                       # Write request-response latency (Tick)
system.comm_monitor_dma_devices1.writeLatencyHist::12            0                       # Write request-response latency (Tick)
system.comm_monitor_dma_devices1.writeLatencyHist::13            0                       # Write request-response latency (Tick)
system.comm_monitor_dma_devices1.writeLatencyHist::14            0                       # Write request-response latency (Tick)
system.comm_monitor_dma_devices1.writeLatencyHist::15            0                       # Write request-response latency (Tick)
system.comm_monitor_dma_devices1.writeLatencyHist::16            0                       # Write request-response latency (Tick)
system.comm_monitor_dma_devices1.writeLatencyHist::17            0                       # Write request-response latency (Tick)
system.comm_monitor_dma_devices1.writeLatencyHist::18            0                       # Write request-response latency (Tick)
system.comm_monitor_dma_devices1.writeLatencyHist::19            0                       # Write request-response latency (Tick)
system.comm_monitor_dma_devices1.writeLatencyHist::total            0                       # Write request-response latency (Tick)
system.comm_monitor_dma_devices1.ittReadRead::samples            0                       # Read-to-read inter transaction time (Tick)
system.comm_monitor_dma_devices1.ittReadRead::mean          nan                       # Read-to-read inter transaction time (Tick)
system.comm_monitor_dma_devices1.ittReadRead::stdev          nan                       # Read-to-read inter transaction time (Tick)
system.comm_monitor_dma_devices1.ittReadRead::underflows            0                       # Read-to-read inter transaction time (Tick)
system.comm_monitor_dma_devices1.ittReadRead::1-5000            0                       # Read-to-read inter transaction time (Tick)
system.comm_monitor_dma_devices1.ittReadRead::5001-10000            0                       # Read-to-read inter transaction time (Tick)
system.comm_monitor_dma_devices1.ittReadRead::10001-15000            0                       # Read-to-read inter transaction time (Tick)
system.comm_monitor_dma_devices1.ittReadRead::15001-20000            0                       # Read-to-read inter transaction time (Tick)
system.comm_monitor_dma_devices1.ittReadRead::20001-25000            0                       # Read-to-read inter transaction time (Tick)
system.comm_monitor_dma_devices1.ittReadRead::25001-30000            0                       # Read-to-read inter transaction time (Tick)
system.comm_monitor_dma_devices1.ittReadRead::30001-35000            0                       # Read-to-read inter transaction time (Tick)
system.comm_monitor_dma_devices1.ittReadRead::35001-40000            0                       # Read-to-read inter transaction time (Tick)
system.comm_monitor_dma_devices1.ittReadRead::40001-45000            0                       # Read-to-read inter transaction time (Tick)
system.comm_monitor_dma_devices1.ittReadRead::45001-50000            0                       # Read-to-read inter transaction time (Tick)
system.comm_monitor_dma_devices1.ittReadRead::50001-55000            0                       # Read-to-read inter transaction time (Tick)
system.comm_monitor_dma_devices1.ittReadRead::55001-60000            0                       # Read-to-read inter transaction time (Tick)
system.comm_monitor_dma_devices1.ittReadRead::60001-65000            0                       # Read-to-read inter transaction time (Tick)
system.comm_monitor_dma_devices1.ittReadRead::65001-70000            0                       # Read-to-read inter transaction time (Tick)
system.comm_monitor_dma_devices1.ittReadRead::70001-75000            0                       # Read-to-read inter transaction time (Tick)
system.comm_monitor_dma_devices1.ittReadRead::75001-80000            0                       # Read-to-read inter transaction time (Tick)
system.comm_monitor_dma_devices1.ittReadRead::80001-85000            0                       # Read-to-read inter transaction time (Tick)
system.comm_monitor_dma_devices1.ittReadRead::85001-90000            0                       # Read-to-read inter transaction time (Tick)
system.comm_monitor_dma_devices1.ittReadRead::90001-95000            0                       # Read-to-read inter transaction time (Tick)
system.comm_monitor_dma_devices1.ittReadRead::95001-100000            0                       # Read-to-read inter transaction time (Tick)
system.comm_monitor_dma_devices1.ittReadRead::overflows            0                       # Read-to-read inter transaction time (Tick)
system.comm_monitor_dma_devices1.ittReadRead::min_value            0                       # Read-to-read inter transaction time (Tick)
system.comm_monitor_dma_devices1.ittReadRead::max_value            0                       # Read-to-read inter transaction time (Tick)
system.comm_monitor_dma_devices1.ittReadRead::total            0                       # Read-to-read inter transaction time (Tick)
system.comm_monitor_dma_devices1.ittWriteWrite::samples            0                       # Write-to-write inter transaction time (Tick)
system.comm_monitor_dma_devices1.ittWriteWrite::mean          nan                       # Write-to-write inter transaction time (Tick)
system.comm_monitor_dma_devices1.ittWriteWrite::stdev          nan                       # Write-to-write inter transaction time (Tick)
system.comm_monitor_dma_devices1.ittWriteWrite::underflows            0                       # Write-to-write inter transaction time (Tick)
system.comm_monitor_dma_devices1.ittWriteWrite::1-5000            0                       # Write-to-write inter transaction time (Tick)
system.comm_monitor_dma_devices1.ittWriteWrite::5001-10000            0                       # Write-to-write inter transaction time (Tick)
system.comm_monitor_dma_devices1.ittWriteWrite::10001-15000            0                       # Write-to-write inter transaction time (Tick)
system.comm_monitor_dma_devices1.ittWriteWrite::15001-20000            0                       # Write-to-write inter transaction time (Tick)
system.comm_monitor_dma_devices1.ittWriteWrite::20001-25000            0                       # Write-to-write inter transaction time (Tick)
system.comm_monitor_dma_devices1.ittWriteWrite::25001-30000            0                       # Write-to-write inter transaction time (Tick)
system.comm_monitor_dma_devices1.ittWriteWrite::30001-35000            0                       # Write-to-write inter transaction time (Tick)
system.comm_monitor_dma_devices1.ittWriteWrite::35001-40000            0                       # Write-to-write inter transaction time (Tick)
system.comm_monitor_dma_devices1.ittWriteWrite::40001-45000            0                       # Write-to-write inter transaction time (Tick)
system.comm_monitor_dma_devices1.ittWriteWrite::45001-50000            0                       # Write-to-write inter transaction time (Tick)
system.comm_monitor_dma_devices1.ittWriteWrite::50001-55000            0                       # Write-to-write inter transaction time (Tick)
system.comm_monitor_dma_devices1.ittWriteWrite::55001-60000            0                       # Write-to-write inter transaction time (Tick)
system.comm_monitor_dma_devices1.ittWriteWrite::60001-65000            0                       # Write-to-write inter transaction time (Tick)
system.comm_monitor_dma_devices1.ittWriteWrite::65001-70000            0                       # Write-to-write inter transaction time (Tick)
system.comm_monitor_dma_devices1.ittWriteWrite::70001-75000            0                       # Write-to-write inter transaction time (Tick)
system.comm_monitor_dma_devices1.ittWriteWrite::75001-80000            0                       # Write-to-write inter transaction time (Tick)
system.comm_monitor_dma_devices1.ittWriteWrite::80001-85000            0                       # Write-to-write inter transaction time (Tick)
system.comm_monitor_dma_devices1.ittWriteWrite::85001-90000            0                       # Write-to-write inter transaction time (Tick)
system.comm_monitor_dma_devices1.ittWriteWrite::90001-95000            0                       # Write-to-write inter transaction time (Tick)
system.comm_monitor_dma_devices1.ittWriteWrite::95001-100000            0                       # Write-to-write inter transaction time (Tick)
system.comm_monitor_dma_devices1.ittWriteWrite::overflows            0                       # Write-to-write inter transaction time (Tick)
system.comm_monitor_dma_devices1.ittWriteWrite::min_value            0                       # Write-to-write inter transaction time (Tick)
system.comm_monitor_dma_devices1.ittWriteWrite::max_value            0                       # Write-to-write inter transaction time (Tick)
system.comm_monitor_dma_devices1.ittWriteWrite::total            0                       # Write-to-write inter transaction time (Tick)
system.comm_monitor_dma_devices1.ittReqReq::samples            0                       # Request-to-request inter transaction time (Tick)
system.comm_monitor_dma_devices1.ittReqReq::mean          nan                       # Request-to-request inter transaction time (Tick)
system.comm_monitor_dma_devices1.ittReqReq::stdev          nan                       # Request-to-request inter transaction time (Tick)
system.comm_monitor_dma_devices1.ittReqReq::underflows            0                       # Request-to-request inter transaction time (Tick)
system.comm_monitor_dma_devices1.ittReqReq::1-5000            0                       # Request-to-request inter transaction time (Tick)
system.comm_monitor_dma_devices1.ittReqReq::5001-10000            0                       # Request-to-request inter transaction time (Tick)
system.comm_monitor_dma_devices1.ittReqReq::10001-15000            0                       # Request-to-request inter transaction time (Tick)
system.comm_monitor_dma_devices1.ittReqReq::15001-20000            0                       # Request-to-request inter transaction time (Tick)
[...]
system.ruby.network.ctrl_traffic_distribution.n4.n9            0                       (Unspecified)
system.ruby.network.ctrl_traffic_distribution.n5.n0            0                       (Unspecified)
system.ruby.network.ctrl_traffic_distribution.n5.n1            0                       (Unspecified)
system.ruby.network.ctrl_traffic_distribution.n5.n2            0                       (Unspecified)
system.ruby.network.ctrl_traffic_distribution.n5.n3            0                       (Unspecified)
system.ruby.network.ctrl_traffic_distribution.n5.n4            0                       (Unspecified)
system.ruby.network.ctrl_traffic_distribution.n5.n5            0                       (Unspecified)
system.ruby.network.ctrl_traffic_distribution.n5.n6            0                       (Unspecified)
system.ruby.network.ctrl_traffic_distribution.n5.n7            0                       (Unspecified)
system.ruby.network.ctrl_traffic_distribution.n5.n8            0                       (Unspecified)
system.ruby.network.ctrl_traffic_distribution.n5.n9            0                       (Unspecified)
system.ruby.network.ctrl_traffic_distribution.n6.n0            0                       (Unspecified)
system.ruby.network.ctrl_traffic_distribution.n6.n1            0                       (Unspecified)
system.ruby.network.ctrl_traffic_distribution.n6.n2        19000                       (Unspecified)
system.ruby.network.ctrl_traffic_distribution.n6.n3            0                       (Unspecified)
system.ruby.network.ctrl_traffic_distribution.n6.n4            0                       (Unspecified)
system.ruby.network.ctrl_traffic_distribution.n6.n5            0                       (Unspecified)
system.ruby.network.ctrl_traffic_distribution.n6.n6            0                       (Unspecified)
system.ruby.network.ctrl_traffic_distribution.n6.n7            0                       (Unspecified)
system.ruby.network.ctrl_traffic_distribution.n6.n8            0                       (Unspecified)
system.ruby.network.ctrl_traffic_distribution.n6.n9            0                       (Unspecified)
system.ruby.network.ctrl_traffic_distribution.n7.n0            0                       (Unspecified)
system.ruby.network.ctrl_traffic_distribution.n7.n1            0                       (Unspecified)
system.ruby.network.ctrl_traffic_distribution.n7.n2            0                       (Unspecified)
system.ruby.network.ctrl_traffic_distribution.n7.n3            0                       (Unspecified)
system.ruby.network.ctrl_traffic_distribution.n7.n4            0                       (Unspecified)
system.ruby.network.ctrl_traffic_distribution.n7.n5            0                       (Unspecified)
system.ruby.network.ctrl_traffic_distribution.n7.n6            0                       (Unspecified)
system.ruby.network.ctrl_traffic_distribution.n7.n7            0                       (Unspecified)
system.ruby.network.ctrl_traffic_distribution.n7.n8            0                       (Unspecified)
system.ruby.network.ctrl_traffic_distribution.n7.n9            0                       (Unspecified)
system.ruby.network.ctrl_traffic_distribution.n8.n0            0                       (Unspecified)
system.ruby.network.ctrl_traffic_distribution.n8.n1            0                       (Unspecified)
system.ruby.network.ctrl_traffic_distribution.n8.n2            0                       (Unspecified)
system.ruby.network.ctrl_traffic_distribution.n8.n3            0                       (Unspecified)
system.ruby.network.ctrl_traffic_distribution.n8.n4            0                       (Unspecified)
system.ruby.network.ctrl_traffic_distribution.n8.n5            0                       (Unspecified)
system.ruby.network.ctrl_traffic_distribution.n8.n6            0                       (Unspecified)
system.ruby.network.ctrl_traffic_distribution.n8.n7            0                       (Unspecified)
system.ruby.network.ctrl_traffic_distribution.n8.n8            0                       (Unspecified)
system.ruby.network.ctrl_traffic_distribution.n8.n9            0                       (Unspecified)
system.ruby.network.ctrl_traffic_distribution.n9.n0            0                       (Unspecified)
system.ruby.network.ctrl_traffic_distribution.n9.n1            0                       (Unspecified)
system.ruby.network.ctrl_traffic_distribution.n9.n2            0                       (Unspecified)
system.ruby.network.ctrl_traffic_distribution.n9.n3            0                       (Unspecified)
system.ruby.network.ctrl_traffic_distribution.n9.n4            0                       (Unspecified)
system.ruby.network.ctrl_traffic_distribution.n9.n5            0                       (Unspecified)
system.ruby.network.ctrl_traffic_distribution.n9.n6            0                       (Unspecified)
system.ruby.network.ctrl_traffic_distribution.n9.n7            0                       (Unspecified)
system.ruby.network.ctrl_traffic_distribution.n9.n8            0                       (Unspecified)
system.ruby.network.ctrl_traffic_distribution.n9.n9            0                       (Unspecified)
system.ruby.network.data_traffic_distribution.n0.n0            0                       (Unspecified)
system.ruby.network.data_traffic_distribution.n0.n1            0                       (Unspecified)
system.ruby.network.data_traffic_distribution.n0.n2            0                       (Unspecified)
system.ruby.network.data_traffic_distribution.n0.n3            0                       (Unspecified)
system.ruby.network.data_traffic_distribution.n0.n4            0                       (Unspecified)
system.ruby.network.data_traffic_distribution.n0.n5            0                       (Unspecified)
system.ruby.network.data_traffic_distribution.n0.n6            0                       (Unspecified)
system.ruby.network.data_traffic_distribution.n0.n7            0                       (Unspecified)
system.ruby.network.data_traffic_distribution.n0.n8            0                       (Unspecified)
system.ruby.network.data_traffic_distribution.n0.n9            0                       (Unspecified)
system.ruby.network.data_traffic_distribution.n1.n0            0                       (Unspecified)
system.ruby.network.data_traffic_distribution.n1.n1            0                       (Unspecified)
system.ruby.network.data_traffic_distribution.n1.n2            0                       (Unspecified)
system.ruby.network.data_traffic_distribution.n1.n3            0                       (Unspecified)
system.ruby.network.data_traffic_distribution.n1.n4            0                       (Unspecified)
system.ruby.network.data_traffic_distribution.n1.n5            0                       (Unspecified)
system.ruby.network.data_traffic_distribution.n1.n6            0                       (Unspecified)
system.ruby.network.data_traffic_distribution.n1.n7            0                       (Unspecified)
system.ruby.network.data_traffic_distribution.n1.n8            0                       (Unspecified)
system.ruby.network.data_traffic_distribution.n1.n9            0                       (Unspecified)
system.ruby.network.data_traffic_distribution.n2.n0            0                       (Unspecified)
system.ruby.network.data_traffic_distribution.n2.n1            0                       (Unspecified)
system.ruby.network.data_traffic_distribution.n2.n2            0                       (Unspecified)
system.ruby.network.data_traffic_distribution.n2.n3         1000                       (Unspecified)
system.ruby.network.data_traffic_distribution.n2.n4         1000                       (Unspecified)
system.ruby.network.data_traffic_distribution.n2.n5            0                       (Unspecified)
system.ruby.network.data_traffic_distribution.n2.n6        18000                       (Unspecified)
system.ruby.network.data_traffic_distribution.n2.n7            0                       (Unspecified)
system.ruby.network.data_traffic_distribution.n2.n8            0                       (Unspecified)
system.ruby.network.data_traffic_distribution.n2.n9            0                       (Unspecified)
system.ruby.network.data_traffic_distribution.n3.n0            0                       (Unspecified)
system.ruby.network.data_traffic_distribution.n3.n1            0                       (Unspecified)
system.ruby.network.data_traffic_distribution.n3.n2         9000                       (Unspecified)
system.ruby.network.data_traffic_distribution.n3.n3            0                       (Unspecified)
system.ruby.network.data_traffic_distribution.n3.n4            0                       (Unspecified)
system.ruby.network.data_traffic_distribution.n3.n5            0                       (Unspecified)
system.ruby.network.data_traffic_distribution.n3.n6            0                       (Unspecified)
system.ruby.network.data_traffic_distribution.n3.n7            0                       (Unspecified)
system.ruby.network.data_traffic_distribution.n3.n8            0                       (Unspecified)
system.ruby.network.data_traffic_distribution.n3.n9            0                       (Unspecified)
system.ruby.network.data_traffic_distribution.n4.n0            0                       (Unspecified)
system.ruby.network.data_traffic_distribution.n4.n1            0                       (Unspecified)
system.ruby.network.data_traffic_distribution.n4.n2         9000                       (Unspecified)
system.ruby.network.data_traffic_distribution.n4.n3            0                       (Unspecified)
system.ruby.network.data_traffic_distribution.n4.n4            0                       (Unspecified)
system.ruby.network.data_traffic_distribution.n4.n5            0                       (Unspecified)
system.ruby.network.data_traffic_distribution.n4.n6            0                       (Unspecified)
system.ruby.network.data_traffic_distribution.n4.n7            0                       (Unspecified)
system.ruby.network.data_traffic_distribution.n4.n8            0                       (Unspecified)
system.ruby.network.data_traffic_distribution.n4.n9            0                       (Unspecified)
system.ruby.network.data_traffic_distribution.n5.n0            0                       (Unspecified)
system.ruby.network.data_traffic_distribution.n5.n1            0                       (Unspecified)
system.ruby.network.data_traffic_distribution.n5.n2            0                       (Unspecified)
system.ruby.network.data_traffic_distribution.n5.n3            0                       (Unspecified)
system.ruby.network.data_traffic_distribution.n5.n4            0                       (Unspecified)
system.ruby.network.data_traffic_distribution.n5.n5            0                       (Unspecified)
system.ruby.network.data_traffic_distribution.n5.n6            0                       (Unspecified)
system.ruby.network.data_traffic_distribution.n5.n7            0                       (Unspecified)
system.ruby.network.data_traffic_distribution.n5.n8            0                       (Unspecified)
system.ruby.network.data_traffic_distribution.n5.n9            0                       (Unspecified)
system.ruby.network.data_traffic_distribution.n6.n0            0                       (Unspecified)
system.ruby.network.data_traffic_distribution.n6.n1            0                       (Unspecified)
system.ruby.network.data_traffic_distribution.n6.n2         2000                       (Unspecified)
system.ruby.network.data_traffic_distribution.n6.n3            0                       (Unspecified)
system.ruby.network.data_traffic_distribution.n6.n4            0                       (Unspecified)
system.ruby.network.data_traffic_distribution.n6.n5            0                       (Unspecified)
system.ruby.network.data_traffic_distribution.n6.n6            0                       (Unspecified)
system.ruby.network.data_traffic_distribution.n6.n7            0                       (Unspecified)
system.ruby.network.data_traffic_distribution.n6.n8            0                       (Unspecified)
system.ruby.network.data_traffic_distribution.n6.n9            0                       (Unspecified)
system.ruby.network.data_traffic_distribution.n7.n0            0                       (Unspecified)
system.ruby.network.data_traffic_distribution.n7.n1            0                       (Unspecified)
system.ruby.network.data_traffic_distribution.n7.n2            0                       (Unspecified)
system.ruby.network.data_traffic_distribution.n7.n3            0                       (Unspecified)
system.ruby.network.data_traffic_distribution.n7.n4            0                       (Unspecified)
system.ruby.network.data_traffic_distribution.n7.n5            0                       (Unspecified)
system.ruby.network.data_traffic_distribution.n7.n6            0                       (Unspecified)
system.ruby.network.data_traffic_distribution.n7.n7            0                       (Unspecified)
system.ruby.network.data_traffic_distribution.n7.n8            0                       (Unspecified)
system.ruby.network.data_traffic_distribution.n7.n9            0                       (Unspecified)
system.ruby.network.data_traffic_distribution.n8.n0            0                       (Unspecified)
system.ruby.network.data_traffic_distribution.n8.n1            0                       (Unspecified)
system.ruby.network.data_traffic_distribution.n8.n2            0                       (Unspecified)
system.ruby.network.data_traffic_distribution.n8.n3            0                       (Unspecified)
system.ruby.network.data_traffic_distribution.n8.n4            0                       (Unspecified)
system.ruby.network.data_traffic_distribution.n8.n5            0                       (Unspecified)
system.ruby.network.data_traffic_distribution.n8.n6            0                       (Unspecified)
system.ruby.network.data_traffic_distribution.n8.n7            0                       (Unspecified)
system.ruby.network.data_traffic_distribution.n8.n8            0                       (Unspecified)
system.ruby.network.data_traffic_distribution.n8.n9            0                       (Unspecified)
system.ruby.network.data_traffic_distribution.n9.n0            0                       (Unspecified)
system.ruby.network.data_traffic_distribution.n9.n1            0                       (Unspecified)
system.ruby.network.data_traffic_distribution.n9.n2            0                       (Unspecified)
system.ruby.network.data_traffic_distribution.n9.n3            0                       (Unspecified)
system.ruby.network.data_traffic_distribution.n9.n4            0                       (Unspecified)
system.ruby.network.data_traffic_distribution.n9.n5            0                       (Unspecified)
system.ruby.network.data_traffic_distribution.n9.n6            0                       (Unspecified)
system.ruby.network.data_traffic_distribution.n9.n7            0                       (Unspecified)
system.ruby.network.data_traffic_distribution.n9.n8            0                       (Unspecified)
system.ruby.network.data_traffic_distribution.n9.n9            0                       (Unspecified)
system.ruby.network.ext_in_link_utilization        71000                       (Unspecified)
system.ruby.network.ext_out_link_utilization        71000                       (Unspecified)
system.ruby.network.flit_network_latency |   292941910                       |           0                       |   201792017                       |   663684377                       (Unspecified)
system.ruby.network.flit_queueing_latency |    24769864                       |           0                       |    13749047                       |    72323379                       (Unspecified)
system.ruby.network.flits_injected       |       20000     28.17%     28.17% |           0      0.00%     28.17% |       11000     15.49%     43.66% |       40000     56.34%    100.00% (Unspecified)
system.ruby.network.flits_injected::total        71000                       (Unspecified)
system.ruby.network.flits_received       |       20000     28.17%     28.17% |           0      0.00%     28.17% |       11000     15.49%     43.66% |       40000     56.34%    100.00% (Unspecified)
system.ruby.network.flits_received::total        71000                       (Unspecified)
system.ruby.network.int_link_utilization       111000                       (Unspecified)
system.ruby.network.packet_network_latency |   292941910                       |           0                       |   201792017                       |   663684377                       (Unspecified)
system.ruby.network.packet_queueing_latency |    24769864                       |           0                       |    13749047                       |    72323379                       (Unspecified)
system.ruby.network.packets_injected     |       20000     28.17%     28.17% |           0      0.00%     28.17% |       11000     15.49%     43.66% |       40000     56.34%    100.00% (Unspecified)
system.ruby.network.packets_injected::total        71000                       (Unspecified)
system.ruby.network.packets_received     |       20000     28.17%     28.17% |           0      0.00%     28.17% |       11000     15.49%     43.66% |       40000     56.34%    100.00% (Unspecified)
system.ruby.network.packets_received::total        71000                       (Unspecified)
system.ruby.network.routers2.buffer_reads        71000                       (Unspecified)
system.ruby.network.routers2.buffer_writes        71000                       (Unspecified)
system.ruby.network.routers2.crossbar_activity        71000                       (Unspecified)
system.ruby.network.routers2.sw_input_arbiter_activity        81681                       (Unspecified)
system.ruby.network.routers2.sw_output_arbiter_activity        71000                       (Unspecified)
system.ruby.network.routers3.buffer_reads        28885                       (Unspecified)
system.ruby.network.routers3.buffer_writes        28885                       (Unspecified)
system.ruby.network.routers3.crossbar_activity        28885                       (Unspecified)
system.ruby.network.routers3.sw_input_arbiter_activity        31025                       (Unspecified)
system.ruby.network.routers3.sw_output_arbiter_activity        28885                       (Unspecified)
system.ruby.network.routers4.buffer_reads        28746                       (Unspecified)
system.ruby.network.routers4.buffer_writes        28746                       (Unspecified)
system.ruby.network.routers4.crossbar_activity        28746                       (Unspecified)
system.ruby.network.routers4.sw_input_arbiter_activity        31018                       (Unspecified)
system.ruby.network.routers4.sw_output_arbiter_activity        28746                       (Unspecified)
system.ruby.network.routers5.buffer_reads        13369                       (Unspecified)
system.ruby.network.routers5.buffer_writes        13369                       (Unspecified)
system.ruby.network.routers5.crossbar_activity        13369                       (Unspecified)
system.ruby.network.routers5.sw_input_arbiter_activity        13369                       (Unspecified)
system.ruby.network.routers5.sw_output_arbiter_activity        13369                       (Unspecified)
system.ruby.network.routers6.buffer_reads        40000                       (Unspecified)
system.ruby.network.routers6.buffer_writes        40000                       (Unspecified)
system.ruby.network.routers6.crossbar_activity        40000                       (Unspecified)
system.ruby.network.routers6.sw_input_arbiter_activity        42487                       (Unspecified)
system.ruby.network.routers6.sw_output_arbiter_activity        40000                       (Unspecified)

---------- End Simulation Statistics   ----------
